25
s                      x[A]                      y[A]                      z[A]                      q[e]
N 1.7261705248472670 0.6100803162563128 -1.5393240797437417 0.1158659338886357
O 1.7970085441640142 -0.3957483065142889 -0.1881480309309340 -0.2341991647481463
N 3.3788825767846884 -0.0904944104715799 0.0445369312631223 0.0569852111266852
N 2.1761948098646600 -0.0506816031965034 0.1310901998926376 0.3189271149812888
O 1.9279274122754171 0.3012088267776193 0.1440022915260480 -0.2877498234141676
N 1.4880985092320296 -0.1510125405986329 0.5294433738885773 0.5692545008206258
O 0.7250822401666172 -0.3000535727361085 0.9343035167626184 -0.2058946535748549
O 1.2262996731023674 -0.2249575019813371 0.3933513903733183 -0.9992971180892700
N 0.6672894061201980 -0.2767944802769143 0.4179676390576686 0.6691943173322236
N 1.1153969352283122 -0.6937044179993215 1.8228437072485320 0.0628076875181509
N -1.3014796076383657 -1.4075318667925547 -0.2448807767409200 0.7576134719858190
O -1.1447278845343849 -1.1130350298496434 -0.1010128459145915 -0.9235083265987739
N -0.9983884178976731 -0.7091696622050299 -0.1071272217791202 0.9955526175656415
O -1.2060220956184697 -1.2256410994074707 -0.2572244343404175 -0.9936641819349231
O -0.3526080451971849 0.1569723807431834 -0.0063689320254302 -0.9934394819660318
N -0.6053445243228786 -0.2104659248888303 0.0776896749790755 0.8475065253219278
N -0.2240394375828996 0.3810296806798451 0.1428477459326070 0.9207393412409772
O -0.5807379944707194 0.3260579743714533 0.3229118384176471 -0.6738758902636315
N -2.4785537694331912 1.1902421292163752 -0.2974104907888261 0.1207489421105395
N -0.7422500745221856 0.9172004498705901 0.1847717685524614 0.4308753055723465
O -1.0156277851409097 0.8465113543193450 -0.1929500292391320 -0.7095764258838037
N -1.2838461351520456 0.7211813475932456 -0.0641602371295984 0.9977500474782615
O -1.1913525487300420 0.8543659796459508 0.1130439574136610 -0.9963537733476465
O -0.6366125757356708 2.3053856036168927 -0.1089439005248433 -0.1586318904925156
N -0.6951918269120906 2.2470529828890089 0.0453015780854989 0.3123697133706422
