25
s                      x[A]                      y[A]                      z[A]                      q[e]
N        2.0496105662341666        1.1372852119656456       -0.1139234578641681        0.1158659338886357
O        1.5936409959627895       -0.4405952217685618       -0.6455299915070430       -0.2341991647481463
N        3.1129734579868877       -0.9589090183721587       -0.5947689220975363        0.0569852111266852
N        1.9821905258835977       -0.7090752201325564       -0.2690807185222793        0.3189271149812888
O        1.8287733019136641       -0.5374391883656319        0.0951095140651975       -0.2877498234141676
N        1.1689201723323002       -1.0586048011371254       -0.0139531956999404        0.5692545008206258
O        0.6876512601880204       -0.5649786445898430       -0.4381314730670098       -0.2058946535748549
O        1.0097492424930290       -0.8227293750158289        0.0935405917300859       -0.9992971180892700
N        0.6070597053079545       -0.4524392470460257        0.0631904005201818        0.6691943173322236
N        0.5090625318348543       -2.1848077066062532       -0.0287198869106315        0.0628076875181509
N       -0.3352265776966818        1.7232846107314002        0.2964088865771677        0.7576134719858190
O       -0.3724659704731739        1.3718501899236542        0.2121204135641935       -0.9235083265987739
N       -0.4890092570767423        0.9651253657085932        0.2866351100026509        0.9955526175656415
O       -0.3641871276894803        1.5250871047904795        0.3436083455445181       -0.9936641819349231
O       -0.4739103366254208       -0.1049961528069543        0.3837718173900403       -0.9934394819660318
N       -0.4569871133545458        0.3183223093389769        0.2210832503097335        0.8475065253219278
N       -0.4956116837015068       -0.3847136119350832        0.2823599241348467        0.9207393412409772
O       -0.7424374180343095       -0.1685775962567244        0.0477515142674098       -0.6738758902636315
N       -2.8098288277328427       -0.0001336180394630       -0.4305593083402726        0.1207489421105395
N       -1.2310338869462649       -0.5242177382825104        0.3011118812131295        0.4308753055723465
O       -1.4808836379164916       -0.2297939032722977        0.2300818977964588       -0.7095764258838037
N       -1.5665128272781388       -0.1703337877604289       -0.0754792924958612        0.9977500474782615
O       -1.5241436281519114       -0.4067419417550962       -0.0722278315657767       -0.9963537733476465
O       -2.0597142753530324       -1.3478592831023797        1.0597502781619113       -0.1586318904925156
N       -2.0215016024116421       -1.4032140083657465        0.8981905771260462        0.3123697133706422

        RMSE         4.192813726E+00 kcal/mol

Coordinates in bohr
s                   x[bohr]                   y[bohr]                   z[bohr]                      q[e]
+        3.8732026340271171        2.1491575771483244       -0.2152841346284125        0.1158659338886357
-        3.0115450246715167       -0.8326043013279368       -1.2198748897174292       -0.2341991647481463
+        5.8826672714146184       -1.8120754239549888       -1.1239503706981060        0.0569852111266852
+        3.7457972223972260       -1.3399579683992524       -0.5084888636485154        0.3189271149812888
-        3.4558806861660272       -1.0156128750993854        0.1797309335086025       -0.2877498234141676
+        2.2089389882310142       -2.0004731492439145       -0.0263677184478032        0.5692545008206258
-        1.2994725515813006       -1.0676549050071795       -0.8279484910400512       -0.2058946535748549
-        1.9081495237003288       -1.5547331941490028        0.1767660999831278       -0.9992971180892700
+        1.1471765848331719       -0.8549862653253433        0.1194125507411315        0.6691943173322236
+        0.9619887659000315       -4.1286882022754385       -0.0542727206152147        0.0628076875181509
+       -0.6334864218212380        3.2565359504985505        0.5601316167827399        0.7576134719858190
-       -0.7038586752471608        2.5924211441130125        0.4008494872551756       -0.9235083265987739
+       -0.9240935686886432        1.8238226179215693        0.5416618558454879        0.9955526175656415
-       -0.6882139297502570        2.8819969455214096        0.6493256675008168       -0.9936641819349231
-       -0.8955607442455715       -0.1984139730318638        0.7252236295363900       -0.9934394819660318
+       -0.8635804871036431        0.6015419842739331        0.4177867940114359        0.8475065253219278
+       -0.9365703467728791       -0.7270033632929712        0.5335829254199101        0.9207393412409772
-       -1.4030033853768895       -0.3185654878132139        0.0902372840412965       -0.6738758902636315
+       -5.3098069438312958       -0.0002525015000057       -0.8136391735296657        0.1207489421105395
+       -2.3263168974862554       -0.9906279554608741        0.5690189886142050        0.4308753055723465
-       -2.7984644993338250       -0.4342475424845901        0.4347917732608861       -0.7095764258838037
+       -2.9602802155723054       -0.3218842087790713       -0.1426351909605019        0.9977500474782615
-       -2.8802140330687482       -0.7686308736540516       -0.1364908202950158       -0.9963537733476465
-       -3.8922958771130642       -2.5470849007194261        2.0026377871037644       -0.1586318904925156
+       -3.8200843907321436       -2.6516901712171506        1.6973341992351338        0.3123697133706422
