25
s                      x[A]                      y[A]                      z[A]                      q[e]
N       -1.6847268198966756        0.2979298291001121       -1.6303272730599807        0.1158659338886357
O       -1.8521411561798520        0.4764101372520169        0.0312374732804391       -0.2341991647481463
N       -3.3750881533699308        0.0355461782941774        0.0537829378437091        0.0569852111266852
N       -2.1615829690547308        0.0213600483686045        0.1457900471731754        0.3189271149812888
O       -1.8835355925585309       -0.3152634380930559       -0.0562898810670587       -0.2877498234141676
N       -1.4197649075860581       -0.0047581653190217        0.7854939718869748        0.5692545008206258
O       -1.0161578170857541       -0.1153421724234217        0.0183330211371809       -0.2058946535748549
O       -1.1266583483093124       -0.0256423166060637        0.7240833130551932       -0.9992971180892700
N       -0.6977518400269241       -0.1646529552224732        0.4264315750203130        0.6691943173322236
N       -1.1495039186272340       -0.2236814298614643        1.9632941470898266        0.0628076875181509
N        1.1736517186961968       -1.4485619024708543       -0.1619887434981633        0.7576134719858190
O        0.9946543934549008       -1.1532470433903146       -0.1797702787312161       -0.9235083265987739
N        0.9142482656003130       -0.7259294421323009       -0.0765852636042295        0.9955526175656415
O        1.1135438817423446       -1.2768580655843318       -0.0924002505388343       -0.9936641819349231
O        0.4308071840349341        0.1651774706203331        0.2093835208633141       -0.9934394819660318
N        0.5467540423063250       -0.1989783733029155        0.0066567839587053        0.8475065253219278
N        0.2677447720103301        0.3979294467935880        0.1787660212573565        0.9207393412409772
O        0.4631680338665730        0.3443989864425933       -0.1632608761937291       -0.6738758902636315
N        2.5430423924515249        1.0159717562800745       -0.4233630780089471        0.1207489421105395
N        0.7765712729656584        0.9048895895472319       -0.0120166162809811        0.4308753055723465
O        1.1820285985998682        0.7610264081712539        0.1612234148851720       -0.7095764258838037
N        1.3208775594475399        0.6493290845736034       -0.0886468522392312        0.9977500474782615
O        1.1871446294924859        0.8103220939230832       -0.1704964164405248       -0.9963537733476465
O        0.9955947788402121        2.2292066154826267        0.4662284818424061       -0.1586318904925156
N        0.9882495246211610        2.1840944637987656        0.2961809332000304        0.3123697133706422

        RMSE         5.897512448E-01 kcal/mol

Coordinates in bohr
s                   x[bohr]                   y[bohr]                   z[bohr]                      q[e]
+       -3.1836722858182331        0.5630057816036677       -3.0808720409478640        0.1158659338886357
-       -3.5000395308687340        0.9002846827980860        0.0590302693513366       -0.2341991647481463
+       -6.3779922591463754        0.0671725417826889        0.1016350227471316        0.0569852111266852
+       -4.0847998089674249        0.0403646414431947        0.2755032609748787        0.3189271149812888
-       -3.5593664174875470       -0.5957615553661044       -0.1063724588513348       -0.2877498234141676
+       -2.6829668378735931       -0.0089916293126027        1.4843684800644530        0.5692545008206258
-       -1.9202599745351465       -0.2179651165956014        0.0346443890015013       -0.2058946535748549
-       -2.1290757152652731       -0.0484569556077397        1.3683191536884580       -0.9992971180892700
+       -1.3185598811851498       -0.3111489911177455        0.8058388880360152        0.6691943173322236
+       -2.1722475863460335       -0.4226966417889718        3.7100882417140895        0.0628076875181509
+        2.2178803150086850       -2.7373852714420677       -0.3061143606185662        0.7576134719858190
-        1.8796243931131358       -2.1793210670016752       -0.3397165922992148       -0.9235083265987739
+        1.7276788326594190       -1.3718078320364357       -0.1447251734579871        0.9955526175656415
-        2.1042929651722311       -2.4129120450362569       -0.1746111674420839       -0.9936641819349231
-        0.8141075907057335        0.3121401815682862        0.3956775096157489       -0.9934394819660318
+        1.0332153979459369       -0.3760146304316198        0.0125794985582940        0.8475065253219278
+        0.5059642906226707        0.7519776716948241        0.3378188207141761        0.9207393412409772
-        0.8752607340745990        0.6508197622617650       -0.3085183430084259       -0.6738758902636315
+        4.8056536471624254        1.9199083705697302       -0.8000402690677478        0.1207489421105395
+        1.4675070228032472        1.7099934980222149       -0.0227081137257718        0.4308753055723465
-        2.2337103238124754        1.4381314856845513        0.3046680991440360       -0.7095764258838037
+        2.4960968326189916        1.2270541351383539       -0.1675182726160750        0.9977500474782615
-        2.2433782210489044        1.5312868309221424       -0.3221915324445973       -0.9963537733476465
-        1.8814014639437573        4.2125899803209430        0.8810441425701354       -0.1586318904925156
+        1.8675209451478871        4.1273403687083343        0.5597008473305772        0.3123697133706422
