23
s                      x[A]                      y[A]                      z[A]                      q[e]
N 1.8160816333115548 1.3502779553162838 0.4083863885807827 0.2856065124296451
O 1.7528254057381298 1.1586287482363684 0.3521420449717138 -0.2980193526493612
N 2.6218732167560908 -0.4621304349192279 0.5136760237919243 0.9235469647741466
O 2.5415004253556073 -0.4081214759947432 0.5074386552044423 -0.9987019282037162
O 1.4948231807192860 -0.0557323297564463 0.1886924543621292 -0.9994297377915048
N 1.6453754066340869 -0.4363500700091233 0.1974349856424945 0.3910255639585828
N 2.0155993017026055 0.0755439301674704 0.3927326236689997 0.3788084070601841
N 1.2840391302428056 0.4636865779974749 0.1512598511776475 0.3521750120262308
N 1.0993728302747383 -0.6091002860255778 -0.1765631642840182 0.5091785922378865
N 0.6881509003724461 -0.0537596381355182 -0.3328015164305460 0.9946620798872232
O 0.8450933028133415 -0.0986602037902747 -0.2594758663933737 -0.5088390984708862
O 0.8550266918185977 -0.3604739166205445 -0.2091634460299471 -0.9513197152299744
N 0.6322735241093757 -1.8372072946745384 -0.2190851801681556 0.0534150746794947
N 0.2181646398601837 -1.7833262061370816 -0.3928318097778799 0.0449830180293293
O 0.8107293221306612 -0.2166203479047334 -0.6089364327865978 -0.1594766348608674
O -0.3789819902872418 1.3550767168699129 -0.2932810645862112 -0.2085098172073890
N -0.4780395921818705 1.2468982492354352 -0.5853498112653805 0.7433887315217406
O -0.4637801726251889 1.2040116511123644 -0.7445799989701906 -0.4563903046399361
N -0.6472864776425363 -0.1680600795545756 -0.0118778328426926 0.2740207269363132
N -1.3543913215498928 0.1063018562274022 -0.0932421716789899 0.2947455612059413
O -1.7877136509163287 -0.4157839005706166 0.2243627575997813 -0.8294346811293033
N -1.9572708599707407 -0.2328281754396402 0.1850129725084477 0.8271270632704910
O -2.0285478666296890 0.0877378026326813 0.0645998610687503 -0.6625620378342709
