23
s                      x[A]                      y[A]                      z[A]                      q[e]
N       -1.8134677612450283        1.3864577326197380       -0.2779426783108753        0.2856065124296451
O       -1.7501711142726823        1.1935235301896618       -0.2263275341773483       -0.2980193526493612
N       -2.6604870039352395       -0.4095200463988206       -0.3251907048632374        0.9235469647741466
O       -2.5788192265637973       -0.3571196274059905       -0.3247129632042138       -0.9987019282037162
O       -1.5052871307705218       -0.0259100640993845       -0.0815266768856977       -0.9994297377915048
N       -1.6635947861061178       -0.4034635409193514       -0.0794464895276398        0.3910255639585828
N       -2.0365898118712877        0.1159014563948778       -0.2479014616550980        0.3788084070601841
N       -1.2821144534415378        0.4891893864411627       -0.0593089003237997        0.3521750120262308
N       -1.0958300805628640       -0.5874552269060248        0.2546588311429477        0.5091785922378865
N       -0.6635806940558172       -0.0405568855628334        0.3810700870236132        0.9946620798872232
O       -0.8262142139510440       -0.0822509278641962        0.3191380720679216       -0.5088390984708862
O       -0.8449002171038497       -0.3437529434550110        0.2697016359702269       -0.9513197152299744
N       -0.6513241760696755       -1.8246154553446043        0.2639204934238689        0.0534150746794947
N       -0.2248869765331510       -1.7791574249539315        0.4076637135814739        0.0449830180293293
O       -0.7693479334998441       -0.2013104122345331        0.6652727735366583       -0.1594766348608674
O        0.4257295973627601        1.3469414584616464        0.2652867464016952       -0.2085098172073890
N        0.5432106949571514        1.2364545895357735        0.5495577186140780        0.7433887315217406
O        0.5395018060183185        1.1936568036359330        0.7094058893451911       -0.4563903046399361
N        0.6430251665413732       -0.1808474531481581       -0.0343204206861582        0.2740207269363132
N        1.3594326762357811        0.0793687503686659       -0.0036659724233598        0.2947455612059413
O        1.7585538056257397       -0.4507845452573225       -0.3513072773519814       -0.8294346811293033
N        1.9340799003515299       -0.2712689924439107       -0.3241852115076331        0.8271270632704910
O        2.0201076130338955        0.0476713715215891       -0.2092132485492334       -0.6625620378342709

        RMSE         4.845104829E-01 kcal/mol

Coordinates in bohr
s                   x[bohr]                   y[bohr]                   z[bohr]                      q[e]
+       -3.4269574061002492        2.6200253991745432       -0.5252355405837820        0.2856065124296451
-       -3.3073440786627257        2.2554325963480588       -0.4276970542453845       -0.2980193526493612
+       -5.0275917977774460       -0.7738807305785533       -0.6145213707361058        0.9235469647741466
-       -4.8732620652705574       -0.6748582898228657       -0.6136185698418293       -0.9987019282037162
-       -2.8445804173325091       -0.0489629250408938       -0.1540630912326617       -0.9994297377915048
+       -3.1437385294801583       -0.7624355939450218       -0.1501321068362926        0.3910255639585828
+       -3.8485969743344155        0.2190220101280118       -0.4684658686288206        0.3788084070601841
+       -2.4228451784955585        0.9244339638545506       -0.1120775784140585        0.3521750120262308
+       -2.0708187323022007       -1.1101294898210716        0.4812354462893819        0.5091785922378865
+       -1.2539857739067160       -0.0766414062152897        0.7201180990790100        0.9946620798872232
-       -1.5613185853278915       -0.1554317272281188        0.6030835524149946       -0.5088390984708862
-       -1.5966300136661356       -0.6495989179499618        0.5096622275716545       -0.9513197152299744
+       -1.2308243116611601       -3.4480234948788300        0.4987374514668060        0.0534150746794947
+       -0.4249747948299170       -3.3621202672377195        0.7703727699560684        0.0449830180293293
-       -1.4538568895016473       -0.3804215453262823        1.2571833407080124       -0.1594766348608674
-        0.8045123425170498        2.5453504635172433        0.5013192954129889       -0.2085098172073890
+        1.0265194418886319        2.3365605407879864        1.0385135783120250        0.7433887315217406
-        1.0195106575644979        2.2556844466613071        1.3405828426492528       -0.4563903046399361
+        1.2151414565401040       -0.3417521569365849       -0.0648561956073364        0.2740207269363132
+        2.5689554440838087        0.1499852011166086       -0.0069276838636310        0.2947455612059413
-        3.3231850695142477       -0.8518593321253890       -0.6638745400754985       -0.8294346811293033
+        3.6548813164171587       -0.5126241020478802       -0.6126212636730460        0.8271270632704910
-        3.8174501325864050        0.0900858362007532       -0.3953557415753884       -0.6625620378342709
