25
s                      x[A]                      y[A]                      z[A]                      q[e]
N        1.6982467275262554        0.2881620806594936       -1.6382533249835891        0.1158659338886357
O        1.8074349245813539       -0.3722336106511480       -0.0864378015404859       -0.2341991647481463
N        3.3761605699306205        0.0155524043222640        0.0471656867723914        0.0569852111266852
N        2.1737707300388189        0.0534313375082303        0.1357642043061613        0.3189271149812888
O        1.9123372213300367        0.3886914390076543        0.0658822868291156       -0.2877498234141676
N        1.4898893940944091        0.0453288080190741        0.5596779994166988        0.5692545008206258
O        0.7381534936437631       -0.1492600955918605        0.9663069285059182       -0.2058946535748549
O        1.2367593297803747       -0.0570145224216921        0.4255939617965637       -0.9992971180892700
N        0.6839604900850667       -0.1552326019194538        0.4490920957836373        0.6691943173322236
N        1.1448444064397847       -0.1992825148573531        1.9434946026692956        0.0628076875181509
N       -1.1834148731146938       -1.4775021461697888       -0.1744035391863998        0.7576134719858190
O       -1.0525617636623052       -1.1649321323160153       -0.0433504149512676       -0.9235083265987739
N       -0.9394507970109487       -0.7511756046694338       -0.0672524090833111        0.9955526175656415
O       -1.1029247442479191       -1.2891837491178113       -0.1945597846373918       -0.9936641819349231
O       -0.3669168308097267        0.1691514002300119       -0.0025524724552176       -0.9934394819660318
N       -0.5898148524309035       -0.2134575370458636        0.0968424912607868        0.8475065253219278
N       -0.2584857444928539        0.4095353953212826        0.1369301856916597        0.9207393412409772
O       -0.6113450076467432        0.3339278438662653        0.3170764178261167       -0.6738758902636315
N       -2.5618572557934969        1.0103074755399011       -0.3788347358768095        0.1207489421105395
N       -0.8161460286591764        0.9042398774011305        0.1341399521204101        0.4308753055723465
O       -1.0781219945052654        0.7894520407332828       -0.2408246105945558       -0.7095764258838037
N       -1.3374727338297203        0.6515312241503255       -0.1068449599560126        0.9977500474782615
O       -1.2579990538127643        0.8021033222633163        0.0625850071760116       -0.9963537733476465
O       -0.8155381551113020        2.2763295101240035       -0.2439366320911343       -0.1586318904925156
N       -0.8714326616321129        2.2230693053405490       -0.0868855394227727        0.3123697133706422

        RMSE         1.162529350E+00 kcal/mol

Coordinates in bohr
s                   x[bohr]                   y[bohr]                   z[bohr]                      q[e]
+        3.2092212084796268        0.5445474121885310       -3.0958501083396421        0.1158659338886357
-        3.4155569970462838       -0.7034195788209717       -0.1633437717981951       -0.2341991647481463
+        6.3800188327384841        0.0293897847614655        0.0891302305189487        0.0569852111266852
+        4.1078313393098922        0.1009705944074576        0.2565571637793472        0.3189271149812888
-        3.6137936078327995        0.7345203670345622        0.1244994786258859       -0.2877498234141676
+        2.8154829120627389        0.0856590327495066        1.0576381373417070        0.5692545008206258
-        1.3949079415365881       -0.2820607021282716        1.8260554480085434       -0.2058946535748549
-        2.3371364163896877       -0.1077418325507727        0.8042560284440673       -0.9992971180892700
+        1.2924980068946903       -0.2933471033699868        0.8486610661389488        0.6691943173322236
+        2.1634423844335213       -0.3765893746728780        3.6726725253504493        0.0628076875181509
+       -2.2363300029801976       -2.7920744060370608       -0.3295749243728478        0.7576134719858190
-       -1.9890534634506263       -2.2014026848228698       -0.0819204116828480       -0.9235083265987739
+       -1.7753047146937686       -1.4195161649504104       -0.1270886344447103        0.9955526175656415
-       -2.0842257036191860       -2.4362042112235982       -0.3676647079927279       -0.9936641819349231
-       -0.6933723210513303        0.3196498201724268       -0.0048234738831362       -0.9934394819660318
+       -1.1145885358217320       -0.4033762844314506        0.1830057857899302        0.8475065253219278
+       -0.4884672644265629        0.7739097358383275        0.2587605492653210        0.9207393412409772
-       -1.1552746326182664        0.6310321705718841        0.5991875905325948       -0.6738758902636315
+       -4.8412085859666689        1.9092044312730967       -0.7158938976173229        0.1207489421105395
+       -1.5422924725458991        1.7087657200057000        0.2534877719896012        0.4308753055723465
-       -2.0373552994473010        1.4918481461696820       -0.4550925582937401       -0.7095764258838037
+       -2.5274571672055264        1.2312155758283903       -0.2019077122023725        0.9977500474782615
-       -2.3772736777912091        1.5157556033975084        0.1182685231224748       -0.9963537733476465
-       -1.5411437580215059        4.3016393454319495       -0.4609734266188110       -0.1586318904925156
+       -1.6467690672634552        4.2009921450054213       -0.1641898737717097        0.3123697133706422
