25
s                      x[A]                      y[A]                      z[A]                      q[e]
N 1.6982467275262556 0.2881620806594936 -1.6382533249835891 0.1158659338886357
O 1.8074349245813539 -0.3722336106511480 -0.0864378015404859 -0.2341991647481463
N 3.3761605699306205 0.0155524043222640 0.0471656867723914 0.0569852111266852
N 2.1737707300388189 0.0534313375082303 0.1357642043061613 0.3189271149812888
O 1.9123372213300367 0.3886914390076543 0.0658822868291156 -0.2877498234141676
N 1.4898893940944091 0.0453288080190741 0.5596779994166989 0.5692545008206258
O 0.7381534936437631 -0.1492600955918605 0.9663069285059183 -0.2058946535748549
O 1.2367593297803747 -0.0570145224216921 0.4255939617965637 -0.9992971180892700
N 0.6839604900850667 -0.1552326019194538 0.4490920957836373 0.6691943173322236
N 1.1448444064397847 -0.1992825148573531 1.9434946026692956 0.0628076875181509
N -1.1834148731146938 -1.4775021461697888 -0.1744035391863998 0.7576134719858190
O -1.0525617636623052 -1.1649321323160153 -0.0433504149512676 -0.9235083265987739
N -0.9394507970109487 -0.7511756046694338 -0.0672524090833111 0.9955526175656415
O -1.1029247442479191 -1.2891837491178113 -0.1945597846373918 -0.9936641819349231
O -0.3669168308097267 0.1691514002300119 -0.0025524724552176 -0.9934394819660318
N -0.5898148524309035 -0.2134575370458636 0.0968424912607868 0.8475065253219278
N -0.2584857444928539 0.4095353953212827 0.1369301856916597 0.9207393412409772
O -0.6113450076467432 0.3339278438662653 0.3170764178261167 -0.6738758902636315
N -2.5618572557934969 1.0103074755399011 -0.3788347358768095 0.1207489421105395
N -0.8161460286591764 0.9042398774011305 0.1341399521204101 0.4308753055723465
O -1.0781219945052654 0.7894520407332828 -0.2408246105945558 -0.7095764258838037
N -1.3374727338297203 0.6515312241503255 -0.1068449599560126 0.9977500474782615
O -1.2579990538127643 0.8021033222633163 0.0625850071760116 -0.9963537733476465
O -0.8155381551113020 2.2763295101240035 -0.2439366320911343 -0.1586318904925156
N -0.8714326616321129 2.2230693053405490 -0.0868855394227727 0.3123697133706422
