21
s                      x[A]                      y[A]                      z[A]                      q[e]
N -2.1191890489919132 1.5766632121463280 -0.8333947205072860 0.0690680479201058
O -1.9396676261490517 0.0007398848278831 0.2918662940059312 -0.3117950550350966
N -2.0394945806774447 -0.2106123990165830 -0.0111120107835702 0.5776243102962968
N -3.3812140003170934 -0.3839825088387157 0.0062434173863350 0.0604184539076988
O -1.8796473632731807 -0.2701000419640190 -0.3207763599852682 -0.3968494342195521
O -0.5896041426260895 -0.9504889835781876 0.0590775211714392 -0.9828651838991298
N -0.3691955971507441 -0.9394661263335119 0.0332369114760366 0.7759263489545838
N -1.1011271552625281 -1.1610470778495652 0.4367725725390146 0.9970342621901004
O -1.0851738597860539 -1.2725594897208206 0.1796620444636747 -0.3970377457969525
O -1.1655398678735820 -1.0770593652997644 0.6896664879048611 -0.3893757401670396
N 0.5929953693349800 1.7704080207119550 0.2731217109342345 0.1691966627363242
O 0.5674447485347845 1.3293092339537256 0.1899702697794801 -0.6800109224217911
O 0.7494634286121369 -0.4073535331370096 0.3258759321941269 -0.9821368279659007
N 0.6799062274534695 -0.5714153592460034 0.2031353432304108 0.8921713087406896
O 0.8424393115948070 -0.2937191699757777 -0.3595723632838549 -0.3335771210350215
N 0.6421770443732744 0.2601891054660895 0.1080310357807205 0.9988617281482304
N 2.9432588029551767 0.0246473968567894 -0.3094119511814302 0.0655379221577991
N 1.6753176217610026 -0.3923394250050829 -0.1661245861682423 0.9908754307264420
O 1.6145924664480757 -0.4867430763197598 0.1937030998395421 -0.6595771554465193
O 1.5940339847871212 -0.4400107433891220 -0.5265389402182946 -0.5578053818499882
N 1.5937131900274186 -2.0904524931965915 -0.2126263616244270 0.0943160920587207
