21
s                      x[A]                      y[A]                      z[A]                      q[e]
N       -2.1191890489919132        1.5766632121463280       -0.8333947205072860        0.0690680479201058
O       -1.9396676261490515        0.0007398848278831        0.2918662940059312       -0.3117950550350966
N       -2.0394945806774447       -0.2106123990165830       -0.0111120107835702        0.5776243102962968
N       -3.3812140003170930       -0.3839825088387157        0.0062434173863350        0.0604184539076988
O       -1.8796473632731807       -0.2701000419640190       -0.3207763599852682       -0.3968494342195521
O       -0.5896041426260895       -0.9504889835781876        0.0590775211714392       -0.9828651838991298
N       -0.3691955971507441       -0.9394661263335119        0.0332369114760366        0.7759263489545838
N       -1.1011271552625281       -1.1610470778495652        0.4367725725390145        0.9970342621901004
O       -1.0851738597860539       -1.2725594897208206        0.1796620444636747       -0.3970377457969525
O       -1.1655398678735820       -1.0770593652997644        0.6896664879048611       -0.3893757401670396
N        0.5929953693349799        1.7704080207119550        0.2731217109342345        0.1691966627363242
O        0.5674447485347845        1.3293092339537256        0.1899702697794801       -0.6800109224217911
O        0.7494634286121369       -0.4073535331370096        0.3258759321941269       -0.9821368279659007
N        0.6799062274534695       -0.5714153592460034        0.2031353432304108        0.8921713087406896
O        0.8424393115948070       -0.2937191699757777       -0.3595723632838549       -0.3335771210350215
N        0.6421770443732744        0.2601891054660895        0.1080310357807205        0.9988617281482304
N        2.9432588029551767        0.0246473968567894       -0.3094119511814302        0.0655379221577991
N        1.6753176217610024       -0.3923394250050829       -0.1661245861682423        0.9908754307264420
O        1.6145924664480757       -0.4867430763197598        0.1937030998395421       -0.6595771554465193
O        1.5940339847871212       -0.4400107433891220       -0.5265389402182946       -0.5578053818499882
N        1.5937131900274186       -2.0904524931965915       -0.2126263616244270        0.0943160920587207

        RMSE         7.691885641E+00 kcal/mol

Coordinates in bohr
s                   x[bohr]                   y[bohr]                   z[bohr]                      q[e]
+       -4.0046869106641481        2.9794616630411741       -1.5748877761612432        0.0690680479201058
-       -3.6654405878386305        0.0013981796890806        0.5515473609235637       -0.3117950550350966
+       -3.8540861918358256       -0.3979997527669855       -0.0209986570840817        0.5776243102962968
+       -6.3895684321629842       -0.7256217786713625        0.0117983489470949        0.0604184539076988
-       -3.5520187290252507       -0.5104151057866624       -0.6061794678934264       -0.3968494342195521
-       -1.1141903519986849       -1.7961638642275577        0.1116403351849566       -0.9828651838991298
+       -0.6976785653397649       -1.7753336829151019        0.0628086599457955        0.7759263489545838
+       -2.0808287527506577       -2.1940609958987922        0.8253805412104002        0.9970342621901004
-       -2.0506813935016162       -2.4047889139247172        0.3395120591761721       -0.3970377457969525
-       -2.2025511385833729       -2.0353472212759915        1.3032807800465611       -0.3893757401670396
+        1.1205988417078254        3.3455862894594652        0.5161252325821639        0.1691966627363242
-        1.0723151660600301        2.5120303882146873        0.3589917818625553       -0.6800109224217911
-        1.4162806211235530       -0.7697866138665582        0.6158162627251654       -0.9821368279659007
+        1.2848365608802939       -1.0798185328550429        0.3838701651063502        0.8921713087406896
-        1.5919795762334146       -0.5550487890510156       -0.6794932888901137       -0.3335771210350215
+        1.2135387379214675        0.4916861501587715        0.2041490706750969        0.9988617281482304
+        5.5619530539281312        0.0465768297648021       -0.5847038476764308        0.0655379221577991
+        3.1658914782816425       -0.7414140614792074       -0.3139299705629977        0.9908754307264420
-        3.0511375658143205       -0.9198111077071637        0.3660458083489487       -0.6595771554465193
-        3.0122876659198692       -0.8314997972645441       -0.9950143914013889       -0.5578053818499882
+        3.0116814516815493       -3.9503826904220518       -0.4018055905227235        0.0943160920587207
