13
s                      x[A]                      y[A]                      z[A]                      q[e]
C 1.5423465537005094 1.2315042320790968 0.7143513805104158
C 1.5530041519742543 0.0726940108722354 -0.2385533921284013
H 0.8977644967563012 2.0352682711055539 0.3439718646994743
H 2.5615373711402332 1.6025598553908726 0.8257989685240797
H 1.1530556308285638 0.9293192008188486 1.6920202390425307
C 0.2675479638369834 -0.6736513465363329 -0.6075342479741314
O 2.5937933174519667 -0.3304451620031208 -0.7677005768703199
C -1.0209291656836994 -0.2241519552282787 0.0118501749784552
H 0.4111804332048091 -1.7290207649587530 -0.3546800819149079
H 0.1529713766228271 -0.6213051157409976 -1.6950048154836059
F -1.0154297657249700 -0.3128257104564186 1.4029328051238805
F -2.0828027043742217 -1.0058065009972137 -0.4291846099262656
F -1.3438424403718208 1.0951183118327481 -0.3016567273268910
