30
s                      x[A]                      y[A]                      z[A]                      q[e]
N        1.6434662299076426        1.7282738296835891        0.3314531950697583        0.2137068255539760
N        1.4553762061077817        1.0102486363792229       -0.1116284767437372        0.4524136045707061
O        1.4486820281475832        1.3068684918968525       -0.5103072793882377       -0.5303393512711568
N        1.1232272711036655        1.6750519597045492       -1.0303215790069329        0.2065219334641430
N        3.1185231281306316        1.5786737806133055       -0.0130458660167713        0.0640972179527254
N        1.2221059935402436        1.7365384419171226        0.9858855454178250        0.2729192555687945
O        1.4649107200863498        1.5725183742787929        0.6233063854818093       -0.5760168259183410
O        2.8285174073929471       -0.8109752914811083        0.0228547213314965       -0.7855321009151053
O        2.4631484804081110       -1.2832186113193778        0.0108602840929982       -0.7445427033607991
N        2.6782869335357486       -1.0420902072310154        0.0260551489965883        0.9977538426035523
N        1.7779143105054243        0.1040084599611429        0.0044065882258770        0.2084365764815679
N        1.4230187035042807       -0.5783345922952930       -0.0304763373745938        0.3300899125146088
N        0.2283623660898232       -1.2027108375752631        0.4867104965042012        0.6266498413516267
O        0.0534338433009321       -0.4119928411744152        0.0063405864797439       -0.5811225412727979
N        0.1473902926638721       -1.6478062086850433        0.9151532280124035        0.5003074335780895
O        0.1331835978351334       -1.5577285242005969        0.8104711857987013       -0.5967490130385100
N        0.1269308788731339       -1.4837267400941738       -0.7977409993236416        0.9708061175491041
O        0.0507202083859585       -1.2228906366108681       -1.0386927428435457       -0.1568654630532827
O        0.1286983478035873       -1.5081022063565290       -0.6410008098408503       -0.7813807259506527
N       -0.6730918289911836        0.1962619727843771       -0.3081804429384034        0.1400529194232831
N       -0.7935894002663328        0.1539987575872366        0.3609570543676995        0.1778327620465852
N       -1.1238418790466469        0.4759533113736829        0.7104045055580586        0.7120624373414439
O       -1.1197617145880512        0.5728449705856786        0.8827469063971275       -0.9970019554920370
N       -1.7869427265031212       -0.5912695601279231        0.0322466294174801        0.9931708722557875
N       -2.4287231483583578       -1.0462510899468698        0.0135550797881411        0.8506195801821621
O       -2.1414193265228563       -0.9663433379806191        0.0193380846636834       -0.8089940633040810
O       -2.3119728217674496       -0.8875384707674515        0.0245492983778984       -0.9883399134133223
N       -1.2107018498607622        1.0650853639489086       -1.4467039675090148        0.2529889584625400
N       -1.2190220114038204        0.5849872668888512       -0.7549888820317610        0.5419198115726583
O       -1.1813012384555024        0.8084654883635746       -1.1202219506071687       -0.9654652454832693

        RMSE         3.818802036E+00 kcal/mol

Coordinates in bohr
s                   x[bohr]                   y[bohr]                   z[bohr]                      q[e]
+        3.1057010709641535        3.2659642078981315        0.6263557620897920        0.2137068255539760
+        2.7502624390515718        1.9090932413739632       -0.2109472488477018        0.4524136045707061
-        2.7376122760717205        2.4696235316751540       -0.9643409978712599       -0.5303393512711568
+        2.1225919190312994        3.1653894497530199       -1.9470256054723627        0.2065219334641430
+        5.8931546280729243        2.9832610868002432       -0.0246531138411152        0.0640972179527254
+        2.3094456240715941        3.2815820615526179        1.8630536718873041        0.2729192555687945
-        2.7682800592104151        2.9716290546371060        1.1778783608096630       -0.5760168259183410
-        5.3451232410626952       -1.5325211954126274        0.0431891639901873       -0.7855321009151053
-        4.6546760343089568       -2.4249317344839425        0.0205229625804328       -0.7445427033607991
+        5.0612287897748383       -1.9692650896882118        0.0492370957615492        0.9977538426035523
+        3.3597711213874413        0.1965475040572061        0.0083272448945745        0.2084365764815679
+        2.6891156210271663       -1.0928939883164168       -0.0575919309450368        0.3300899125146088
+        0.4315423292713037       -2.2727940911372411        0.9197495407785400        0.6266498413516267
-        0.1009753296693912       -0.7785536354688900        0.0119819719214968       -0.5811225412727979
+        0.2785272866857944       -3.1139024422437402        1.7293889637721036        0.5003074335780895
-        0.2516805243115203       -2.9436802885527347        1.5315685737345912       -0.5967490130385100
+        0.2398645979338842       -2.8038371837963370       -1.5075120077707211        0.9708061175491041
-        0.0958473028756110       -2.3109283845813127       -1.9628448124748978       -0.1568654630532827
-        0.2432046301476970       -2.8499001392125258       -1.2113159767958801       -0.7813807259506527
+       -1.2719592140768323        0.3708813774045306       -0.5823766343758664        0.1400529194232831
+       -1.4996666225696986        0.2910154755006479        0.6821099758069434        0.1778327620465852
+       -2.1237533597180653        0.8994214070010130        1.3424699537960141        0.7120624373414439
-       -2.1160429663444922        1.0825201067528780        1.6681498911857278       -0.9970019554920370
+       -3.3768323549697907       -1.1173375349616945        0.0609372980681691        0.9931708722557875
+       -4.5896215849569773       -1.9771280184613280        0.0256153884083156        0.8506195801821621
-       -4.0466960468905491       -1.8261242519440999        0.0365436838052779       -0.8089940633040810
-       -4.3689954426424045       -1.6772046355581420        0.0463914505063741       -0.9883399134133223
+       -2.2878949158220032        2.0127196380970118       -2.7338742832052780        0.2529889584625400
+       -2.3036177424579498        1.1054657213000332       -1.4267222148056169        0.5419198115726583
-       -2.2323358123450503        1.5277783548916686       -2.1169126863736953       -0.9654652454832693
