25
s                      x[A]                      y[A]                      z[A]                      q[e]
N 0.0626516452494945 -0.0081972607355023 0.2454709836066524 0.1158659338886357
O -0.1652955425550728 0.4248409012953604 0.3135828363727016 -0.2341991647481463
N -0.0863882036617245 -0.0150689423025209 -0.3928710403681807 0.0569852111266852
N -0.5125563432919882 -0.0074571288323426 0.1343264773880591 0.3189271149812888
O -0.2391341303189523 -0.3638517464557254 0.2798105239078210 -0.2877498234141676
N 0.0139643441726015 0.1021193392730133 -0.5553886100281358 0.5692545008206258
O -0.1528428391431670 -0.4839851896782696 0.0515222114964118 -0.2058946535748549
O -0.0533237919363690 0.1766700811419319 -0.2633210344297300 -0.9992971180892700
N -0.1943076371392279 -0.0255028682785290 0.2382280057695194 0.6691943173322236
N 0.0183417823831047 -0.0105378241663208 0.3890850642250788 0.0628076875181509
N 0.0556836631336301 0.0058076614172995 0.2806336025290986 0.7576134719858190
O 0.0316742262274219 -0.0741910151141878 -0.0593676944081582 -0.9235083265987739
N 0.1000590456453515 -0.0074822164441506 -0.4869871443552779 0.9955526175656415
O 0.0638453931488242 0.0495476464488678 0.0909945108185564 -0.9936641819349231
O -0.0432002516660041 0.1148315084399584 -0.1267290446266560 -0.9934394819660318
N -0.0328963740455533 -0.0512519253725251 0.2931523070283802 0.8475065253219278
N -0.0827412910887900 0.0170898754872311 -0.3938205141721060 0.9207393412409772
O 0.1569825191477245 -0.2491983873418335 -0.2275403663456115 -0.6738758902636315
N -0.0672993949727805 0.0215233463204756 0.2181167617721665 0.1207489421105395
N 0.2680905361248208 0.0764113048687724 -0.4860453647809928 0.4308753055723465
O 0.3500331451397639 -0.2075813042790023 -0.1309685438175577 -0.7095764258838037
N 0.4503040066430225 -0.0088080169455449 0.0979889146929744 0.9977500474782615
O 0.3074053565491670 0.1232822855156884 -0.0402687821247503 -0.9963537733476465
O -0.0246604344069523 -0.3685759813454717 -0.1430703673431275 -0.1586318904925156
N -0.0400952177966322 -0.1999633127038397 -0.0833559351772541 0.3123697133706422
