25
s                      x[A]                      y[A]                      z[A]                      q[e]
N -2.3448202214204352 -0.2577206109570135 -0.4758306359825487 0.1158659338886357
O -1.2382205278148293 1.0398630908411903 -0.4532830603774513 -0.2341991647481463
N -2.3758426013614202 2.1338362704610159 -0.1570234711366563 0.0569852111266852
N -1.4925468160720388 1.3329644047155140 0.0083897855013662 0.3189271149812888
O -1.4569657664657090 1.0152625060210976 0.2981053982446102 -0.2877498234141676
N -0.6274085482708875 1.2019730364248067 0.2974225187021391 0.5692545008206258
O -0.3326421909540342 0.6370984914970543 -0.3766052317987971 -0.2058946535748549
O -0.5991683344374180 0.9000553940737963 0.3239258248658496 -0.9992971180892700
N -0.3802311277801643 0.4241996542118111 0.0943951722960832 0.6691943173322236
N 0.4588712961406726 1.8718331579524077 0.5596990617987094 0.0628076875181509
N -0.5603955277876607 -1.9511687519339425 -0.0653364790874582 0.7576134719858190
O -0.3655083860005660 -1.6428235126581814 -0.0737639832660676 -0.9235083265987739
N -0.0832593663279695 -1.3618790664483507 0.0852854344748681 0.9955526175656415
O -0.4608119211229070 -1.7918910809166959 0.0233612275628877 -0.9936641819349231
O 0.3557444779537656 -0.4569573140938690 0.3930966610994347 -0.9934394819660318
N 0.1679729005670810 -0.7887863052971877 0.1432499119690294 0.8475065253219278
N 0.5250363360602126 -0.2149166480546154 0.3504948691848023 0.9207393412409772
O 0.6682204638272677 -0.4823452745870418 0.0908520139777805 -0.6738758902636315
N 2.8543174594667420 0.1789917872059298 -0.4304088056249977 0.1207489421105395
N 1.2263810978970795 -0.4599233379918001 0.4339636171384887 0.4308753055723465
O 1.4771712524578868 -0.2748027901633259 0.0056086144962131 -0.7095764258838037
N 1.6111721173978086 0.0118249578514814 -0.0745296502311042 0.9977500474782615
O 1.6074019889264979 0.0092573555627309 0.1692383393000995 -0.9963537733476465
O 2.0610262409410520 -1.2289914171803629 1.0242631885115778 -0.1586318904925156
N 2.0649754738947226 -1.0634963318978963 1.0822505932863180 0.3123697133706422
