25
s                      x[A]                      y[A]                      z[A]                      q[e]
N       -2.3447023967464009       -0.2576779998393972       -0.4758006700613386        0.1158659338886357
O       -1.2383154935169256        1.0398081837944613       -0.4532692219881210       -0.2341991647481463
N       -2.3758260875250237        2.1338431080404372       -0.1570237420312861        0.0569852111266852
N       -1.4924383288570846        1.3330307248530024        0.0083867672085810        0.3189271149812888
O       -1.4570633996589180        1.0152019311912315        0.2980970342294912       -0.2877498234141676
N       -0.6272603205112506        1.2020488379933276        0.2973871116661219        0.5692545008206258
O       -0.3327147515161372        0.6370666190698854       -0.3765798218160788       -0.2058946535748549
O       -0.5994177703471716        0.8999366407242203        0.3239606077632944       -0.9992971180892700
N       -0.3800273857308496        0.4242715933308892        0.0943568055492794        0.6691943173322236
N        0.4588714347411263        1.8718376752809422        0.5596853124487030        0.0628076875181509
N       -0.5600107014884955       -1.9513254789086800       -0.0652802609370312        0.7576134719858190
O       -0.3658969974581112       -1.6426069120873230       -0.0737975561792731       -0.9235083265987739
N       -0.0829785386785312       -1.3620029356585885        0.0852831020913278        0.9955526175656415
O       -0.4612522447382724       -1.7916336964399464        0.0233041002234467       -0.9936641819349231
O        0.3555582045859602       -0.4569534624670323        0.3931535132988679       -0.9934394819660318
N        0.1681740743282641       -0.7888099158900624        0.1432145522974808        0.8475065253219278
N        0.5251930755648072       -0.2148913998785016        0.3504192603211980        0.9207393412409772
O        0.6680998589637518       -0.4823523721394413        0.0909201845084712       -0.6738758902636315
N        2.8543275474904770        0.1790020671915273       -0.4304304227572259        0.1207489421105395
N        1.2264230629534636       -0.4599064656108373        0.4339069376059429        0.4308753055723465
O        1.4770915269133191       -0.2748416278494761        0.0057160369743413       -0.7095764258838037
N        1.6112715219699925        0.0118873583054890       -0.0746802772288719        0.9977500474782615
O        1.6073005215496277        0.0091994117415891        0.1693777995395830       -0.9963537733476465
O        2.0610405914881706       -1.2290085067420380        1.0243002911705483       -0.1586318904925156
N        2.0649393038417569       -1.0634469124532282        1.0821783946181431        0.3123697133706422

        RMSE         3.762538889E+00 kcal/mol

Coordinates in bohr
s                   x[bohr]                   y[bohr]                   z[bohr]                      q[e]
+       -4.4308453755552595       -0.4869408482522268       -0.8991329567252520        0.1158659338886357
-       -2.3400771396581383        1.9649526903812486       -0.8565546906568962       -0.2341991647481463
+       -4.4896606271402941        4.0323790688921450       -0.2967318676336719        0.0569852111266852
+       -2.8202997006758546        2.5190629867927044        0.0158486931021886        0.3189271149812888
-       -2.7534507727838582        1.9184536119873103        0.5633217535049659       -0.2877498234141676
+       -1.1853502151331610        2.2715430932322156        0.5619801942899150        0.5692545008206258
-       -0.6287397582652541        1.2038814337134527       -0.7116327276060979       -0.2058946535748549
-       -1.1327354206887308        1.7006337812333143        0.6121968241094935       -0.9992971180892700
+       -0.7181476792050260        0.8017571142070005        0.1783085205612175        0.6691943173322236
+        0.8671413384566232        3.5372605575946432        1.0576519569693414        0.0628076875181509
+       -1.0582668531387751       -3.6874707367652411       -0.1233618145694120        0.7576134719858190
-       -0.6914451153231693       -3.1040771956290243       -0.1394571699069141       -0.9235083265987739
+       -0.1568067123931332       -2.5738125304642923        0.1611617060820693        0.9955526175656415
-       -0.8716404173079814       -3.3856970034131466        0.0440383670225349       -0.9936641819349231
-        0.6719076283269684       -0.8635168961423642        0.7429524653964024       -0.9934394819660318
+        0.3178029418828074       -1.4906347060776430        0.2706362810222959        0.8475065253219278
+        0.9924710758043636       -0.4060858924866097        0.6621964310925756        0.9207393412409772
-        1.2625257578984921       -0.9115138793084588        0.1718142479971042       -0.6738758902636315
+        5.3938973371067238        0.3382648828827868       -0.8133956150761875        0.1207489421105395
+        2.3176037029271708       -0.8690972633317715        0.8199652760113501        0.4308753055723465
-        2.7912984481004939       -0.5193754045105129        0.0108017444044956       -0.7095764258838037
+        3.0448618902728919        0.0224638515525607       -0.1411252709358325        0.9977500474782615
-        3.0373577870343245        0.0173843687069245        0.3200776528625089       -0.9963537733476465
-        3.8948022513642515       -2.3224894836003425        1.9356470205390455       -0.1586318904925156
+        3.9021697499544681       -2.0096234135003290        2.0450207847159163        0.3123697133706422
