25
s                      x[A]                      y[A]                      z[A]                      q[e]
N 0.0670915311435327 -0.0071488983517491 0.2424730713248821 0.1158659338886357
O -0.1681630725280885 0.4327488383182267 0.3029641224212105 -0.2341991647481463
N -0.0819694127713119 -0.0084781419723306 -0.3915723568840538 0.0569852111266852
N -0.5171695816662134 -0.0222059006234278 0.1452345724374812 0.3189271149812888
O -0.2339335351850263 -0.3502417119415059 0.2695945174373565 -0.2877498234141676
N 0.0270639601062680 0.1196329639194715 -0.5571568933436526 0.5692545008206258
O -0.1557805974140742 -0.4984264585922198 0.0458596992549435 -0.2058946535748549
O -0.0612446227919460 0.1611405160683108 -0.2672346188697019 -0.9992971180892700
N -0.1908329118027296 -0.0137777714310789 0.2384566842450497 0.6691943173322236
N 0.0165871289808844 -0.0176125519879100 0.3840183838677807 0.0628076875181509
N 0.0570945572690191 0.0063229998639857 0.2899427825031275 0.7576134719858190
O 0.0373899196885107 -0.0769740830595935 -0.0553788642653515 -0.9235083265987739
N 0.1044017513483822 -0.0076186223759156 -0.4803369877492087 0.9955526175656415
O 0.0705303136466677 0.0495154595259626 0.0976014351867160 -0.9936641819349231
O -0.0400639261416973 0.1125951300761511 -0.1260918480091001 -0.9934394819660318
N -0.0300054014173034 -0.0498941289691076 0.2954231614819935 0.8475065253219278
N -0.0815196412381416 0.0225287973568106 -0.4001598243202640 0.9207393412409772
O 0.1570986570321238 -0.2574189085502547 -0.2284825328851230 -0.6738758902636315
N -0.0653844126917028 0.0228200416512536 0.2202331221823245 0.1207489421105395
N 0.2642058797658575 0.0744078491782275 -0.4879717883076969 0.4308753055723465
O 0.3486682967751380 -0.2097162904903156 -0.1269673319172108 -0.7095764258838037
N 0.4489112975720675 -0.0088641646223248 0.1024770666405632 0.9977500474782615
O 0.3050677289893143 0.1263612837001954 -0.0368708632962016 -0.9963537733476465
O -0.0316976004233436 -0.3696129731204200 -0.1423470792847842 -0.1586318904925156
N -0.0339504048180965 -0.2022142163132466 -0.0901724066297804 0.3123697133706422
