21
s                      x[A]                      y[A]                      z[A]                      q[e]
N        1.7566622180158913        0.6716562443002987       -1.6645296242849112        0.0707249461841811
O        1.6298353442466482       -0.1462461153049390       -0.3217511372250506       -0.3496602100029151
N        1.5012992642962577        0.3856614863583977       -0.3103157821381042        0.9824851761690530
N        3.1452744117781730       -0.0888829004142352        0.1037405659675491        0.1071394941056757
O        1.5801301426573600        0.4714418644301273       -0.1613659171887719       -0.8194842575378962
N        0.6873791764009783        0.0106199141362602        0.2807620789458526        0.3116552922920345
N        1.0765172530059461       -0.6874268906520900        1.6762840701036728        0.0918298459672651
N        1.4629111204539766       -0.1032152651315172        0.5975898731151487        0.5593901217632046
O        1.1290034457327593       -0.1038415933301523        0.4780123272663107       -0.9963138680841535
N       -1.0775127369381330       -0.6751170705415408       -0.2369960354547420        0.9989733053171830
O       -1.0944317588545509       -0.7721366328744932       -0.2631246302618224       -0.8354521971080898
N       -1.3168841476239039       -1.5212793561915101       -0.2686015619406353        0.2899344186932475
O       -1.1477250492979862       -1.1813544724348923       -0.1920521635813420       -0.8678253524624289
N       -0.3112802801007123        0.3578132349708082        0.0485516175345624        0.9219570073558310
O       -0.4428782864208057        0.2703153346192743       -0.1657437385039277       -0.9704818863270434
O       -0.7390846351402550        0.3238778821125316        0.4384195377333925       -0.3320651923316272
N       -0.7394756485060920       -0.2583437725387021       -0.0410853980802797        0.9769593393400061
O       -0.9886231020703411        1.0144435616795644       -0.4717409843727354       -0.1970026432733326
O       -1.2554488426358243        0.8761681602095575        0.4870815523443651       -0.1946060569702309
N       -2.4454460177395836        1.0986138494248725       -0.3025467123339365        0.1283355164991325
N       -0.6663007765291971        2.2249784166409290        0.2835287726673654        0.1235072004109040

        RMSE         1.513165259E+00 kcal/mol

Coordinates in bohr
s                   x[bohr]                   y[bohr]                   z[bohr]                      q[e]
+        3.3196104869893248        1.2692463521811599       -3.1455051176096998        0.0707249461841811
-        3.0799424302174443       -0.2763651048384612       -0.6080215299099448       -0.3496602100029151
+        2.8370444418712548        0.7287945863543619       -0.5864118406482551        0.9824851761690530
+        5.9437072276712168       -0.1679643390192467        0.1960412577786588        0.1071394941056757
-        2.9860132122030181        0.8908960078481591       -0.3049373894700867       -0.8194842575378962
+        1.2989583877406139        0.0200687291934098        0.5305634356218308        0.3116552922920345
+        2.0343227775114312       -1.2990485546074961        3.1677178009636919        0.0918298459672651
+        2.7645013635446634       -0.1950485830650845        1.1292811955347251        0.5593901217632046
-        2.1335073071331045       -0.1962321718251562        0.9033123831260447       -0.9963138680841535
+       -2.0362039695055580       -1.2757863659449051       -0.4478575998287557        0.9989733053171830
-       -2.0681762872382068       -1.4591267675659696       -0.4972334880571973       -0.8354521971080898
+       -2.4885503779661544       -2.8748013435147617       -0.5075833889379976        0.2899344186932475
-       -2.1688860105007786       -2.2324364099866658       -0.3629259909703624       -0.8678253524624289
+       -0.5882344776461466        0.6761690181589168        0.0917492600882990        0.9219570073558310
-       -0.8369186682473914        0.5108219499419175       -0.3132102727819228       -0.9704818863270434
-       -1.3966675439490066        0.6120404952860016        0.8284928543659359       -0.3320651923316272
+       -1.3974064521218321       -0.4881989763157200       -0.0776401501271395        0.9769593393400061
-       -1.8682269042134847        1.9170205013083625       -0.8914612626183512       -0.1970026432733326
-       -2.3724544771047111        1.6557178626423206        0.9204507346937014       -0.1946060569702309
+       -4.6212232281192982        2.0760792930479743       -0.5717304264688139        0.1283355164991325
+       -1.2591259848200618        4.2045998425061564        0.5357917290285138        0.1235072004109040
