25
s                      x[A]                      y[A]                      z[A]                      q[e]
N        1.8278880615434203        1.1864783203459757        0.7717585333784626        0.1158659338886357
O        1.8468155746773482       -0.1122541483051257       -0.3351970911562251       -0.2341991647481463
N        3.2979932158003620       -0.5845417200395002        0.1129482002732231        0.0569852111266852
N        2.0970948177167528       -0.4972489214673502        0.0565129763129315        0.3189271149812888
O        1.7901536986691686       -0.4697233054982509        0.3592548720042688       -0.2877498234141676
N        1.3470784373037710       -0.8542754929745086       -0.1942234964550670        0.5692545008206258
O        0.7924976967916724       -0.4631338564249131       -0.7485822663425594       -0.2058946535748549
O        1.1360827777789282       -0.6478849988659267       -0.1182425389804220       -0.9992971180892700
N        0.6746225596037190       -0.3584995180844781       -0.2538121808102942        0.6691943173322236
N        0.8951076234493399       -1.9647884675669571       -0.8318186552199246        0.0628076875181509
N       -0.6388454352684878        1.6207707030120473       -0.1040925717573788        0.7576134719858190
O       -0.6136089593715693        1.2667575882052726       -0.1821098082971634       -0.9235083265987739
N       -0.6616149021872181        0.8477543671691146       -0.1016845097364982        0.9955526175656415
O       -0.6365283973280356        1.4212618111939306       -0.0541975008379940       -0.9936641819349231
O       -0.4593625986563941       -0.2055698207575419        0.0193287814311544       -0.9934394819660318
N       -0.5110674565546421        0.2116193378112463       -0.1518066046099722        0.8475065253219278
N       -0.4256650931410080       -0.4856088515618751       -0.0767229219376130        0.9207393412409772
O       -0.6986522005292352       -0.3213780672131213       -0.3243914671254716       -0.6738758902636315
N       -2.8020845826391430       -0.1669545284286091        0.3633509772396005        0.1207489421105395
N       -1.1153833706033869       -0.7532721288016780        0.0008606700963048        0.4308753055723465
O       -1.3314197533879517       -0.4862543143279990        0.3241077155264734       -0.7095764258838037
N       -1.5229865194801522       -0.2986966778309262        0.1447509976496355        0.9977500474782615
O       -1.4969639129965375       -0.4977979886971673        0.0128490314254447       -0.9963537733476465
O       -1.6031344296605476       -1.9436955750832083        0.6162550664295671       -0.1586318904925156
N       -1.6330584749671007       -1.9065122644495935        0.4472472977918659        0.3123697133706422

        RMSE         5.450363248E-01 kcal/mol

Coordinates in bohr
s                   x[bohr]                   y[bohr]                   z[bohr]                      q[e]
+        3.4542078243110677        2.2421190792471126        1.4584122630702980        0.1158659338886357
-        3.4899756403701976       -0.2121295967432135       -0.6334307003353877       -0.2341991647481463
+        6.2323039414806214       -1.1046237597786992        0.2134411648797527        0.0569852111266852
+        3.9629348646015696       -0.9396642777525795        0.1067940477659261        0.3189271149812888
-        3.3829002129600885       -0.8876484021364535        0.6788933173244748       -0.2877498234141676
+        2.5456093160138411       -1.6143467174122941       -0.3670292154289059        0.5692545008206258
-        1.4976036019923797       -0.8751961480701931       -1.4146154657619647       -0.2058946535748549
-        2.1468853058515407       -1.2243252086491569       -0.2234460150517691       -0.9992971180892700
+        1.2748518757063787       -0.6774659052882794       -0.4796355090366389        0.6691943173322236
+        1.6915082611286858       -3.7129120981595296       -1.5719094444122892        0.0628076875181509
+       -1.2072429091563393        3.0628127408585164       -0.1967064523160124        0.7576134719858190
-       -1.1595528813394456        2.3938249090534529       -0.3441376624412664       -0.9235083265987739
+       -1.2502709656554116        1.6020235756104440       -0.1921558746034316        0.9955526175656415
-       -1.2028643420265897        2.6857955757286818       -0.1024184332680798       -0.9936641819349231
-       -0.8680695037391870       -0.3884706608912099        0.0365261032437166       -0.9934394819660318
+       -0.9657775245225909        0.3999025913139977       -0.2868729067485112        0.8475065253219278
+       -0.8043904472040025       -0.9176677335500477       -0.1449853100069688        0.9207393412409772
-       -1.3202613159486971       -0.6073165297617773       -0.6130110303025980       -0.6738758902636315
+       -5.2951724415557830       -0.3154983341350344        0.6866338344003057        0.1207489421105395
+       -2.1077690953304313       -1.4234780213757652        0.0016264307663874        0.4308753055723465
-       -2.5160186919278309       -0.9188874814022024        0.6124748174928306       -0.7095764258838037
+       -2.8780274145817311       -0.5644549156845613        0.2735397419446010        0.9977500474782615
-       -2.8288518152571362       -0.9407018644413978        0.0242811503714916       -0.9963537733476465
-       -3.0294850143504717       -3.6730523081715165        1.1645532989777023       -0.1586318904925156
+       -3.0860332645456490       -3.6027860346361607        0.8451749031777062        0.3123697133706422
