21
s                      x[A]                      y[A]                      z[A]                      q[e]
N -1.9709288700235732 1.4552864002284378 -0.7232062177464373 0.0707249461841811
O -1.7003067011646511 0.1678872245851460 0.1770379676436268 -0.3496602100029151
N -1.5242522760675106 0.1825914330277501 -0.3437348790796288 0.9824851761690530
N -3.1199652650887675 -0.4558854683566407 0.0788150551294021 0.1071394941056757
O -1.5713203883218554 0.0545640974637462 -0.4375281188393774 -0.8194842575378962
N -0.6191590635913085 -0.3281808570969646 0.3042161463349183 0.3116552922920345
N -0.8774416325076928 -1.7590901131662602 0.6831224002295975 0.0918298459672651
N -1.3986347237310044 -0.6536193325673842 0.3071463366122128 0.5593901217632046
O -1.0597282882163925 -0.5387107428548379 0.2697678635600416 -0.9963138680841535
N 1.2940977602911006 -0.4967299764066049 -0.0101515418852977 0.9989733053171830
O 1.3461741187928891 -0.5708161198992986 -0.0141005604752903 -0.8354521971080898
N 1.7286888332453512 -1.2381321818339832 -0.1880611525053025 0.2899344186932475
O 1.4656696741841244 -0.9468557585394162 -0.1532561186489935 -0.8678253524624289
N 0.2529437364774242 0.2793297921536744 0.1689990029742381 0.9219570073558310
O 0.4771767417134530 0.2459622088466022 0.2891300087671223 -0.9704818863270434
O 0.4715642121751701 0.3888944319715817 -0.3677555562241030 -0.3320651923316272
N 0.8165207645149646 -0.1917372033009428 0.0005865514944388 0.9769593393400061
O 0.9251933720279312 1.0469273947741258 0.5716000885236672 -0.1970026432733326
O 0.7888394813200950 1.1141651885838539 -0.4221341110408755 -0.1946060569702309
N 2.1181748349251768 1.5793195148235388 -0.0943700075163162 0.1283355164991325
N 0.0592915641117299 2.1865982041377086 0.2969382104907966 0.1235072004109040
