21
s                      x[A]                      y[A]                      z[A]                      q[e]
N       -2.1242397619189624        1.5615819329391303       -0.2775420146909493        0.0690680479201058
O       -1.8659888206885209       -0.2459956829511374        0.3606343169346736       -0.3117950550350966
N       -1.9782187255374604       -0.3786564198179734        0.0196447385489301        0.5776243102962968
N       -3.3125967260098470       -0.6004303359422232        0.0229255536463499        0.0604184539076988
O       -1.8347837984840545       -0.3538669294076351       -0.3023825534339227       -0.3968494342195521
O       -0.9168678663836818       -0.1748769571191393        0.1493316103693235       -0.9828651838991298
N       -0.7600011462923881       -0.0178926498402453        0.1418793352187626        0.7759263489545838
N       -0.9923303325649256       -1.3808355538834878        0.1695470417401530        0.9970342621901004
O       -0.9885852999967845       -1.4242213659584553       -0.1076136587330291       -0.3970377457969525
O       -1.0442166951809084       -1.3647343095558717        0.4382894497699240       -0.3893757401670396
N        1.8089593386149287       -1.2273054033966682       -0.1752544427061045        0.1691966627363242
O        1.4863049434756377       -0.9203042002578378       -0.1079287309695144       -0.6800109224217911
O        0.3600576888754966        0.4172682462757151       -0.3125434746134736       -0.9821368279659007
N        0.2077673561650132        0.4966523648225022       -0.1816981474089655        0.8921713087406896
O        0.5767651814429325        0.4778017562524567        0.3512030421127357       -0.3335771210350215
N        0.7837812223780198       -0.1031123098843794       -0.0798070984158903        0.9988617281482304
N        2.2536367896311749        1.7248822130395709       -0.0261785345137831        0.0655379221577991
N        1.0633099248862716        1.1064020417359777        0.0308353557361767        0.9908754307264420
O        0.9115206878819780        1.0952617926311308       -0.3134774815456082       -0.6595771554465193
O        1.0156087159060703        1.1171322686480230        0.4005468147981552       -0.5578053818499882
N       -0.1991127607101066        2.2425615678331314        0.1183374664622031        0.0943160920587207

        RMSE         3.994154733E-01 kcal/mol

Coordinates in bohr
s                   x[bohr]                   y[bohr]                   z[bohr]                      q[e]
+       -4.0142313748345799        2.9509621757180087       -0.5244783960736873        0.0690680479201058
-       -3.5262078242673405       -0.4648644688226051        0.6815000904480912       -0.3117950550350966
+       -3.7382916075180277       -0.7155569291023517        0.0371231756637018        0.5776243102962968
+       -6.2599005762468751       -1.1346488923474396        0.0433230176660923        0.0604184539076988
-       -3.4672388785620689       -0.6687115814371491       -0.5714202111067315       -0.3968494342195521
-       -1.7326291606980206       -0.3304695546086058        0.2821958454715996       -0.9828651838991298
+       -1.4361940215266227       -0.0338122078567803        0.2681130864254846        0.7759263489545838
+       -1.8752325545321951       -2.6094010211346577        0.3203974742704560        0.9970342621901004
-       -1.8681554686474882       -2.6913883236869274       -0.2033603423639081       -0.3970377457969525
-       -1.9732835695225961       -2.5789740790763815        0.8282470237427619       -0.3893757401670396
+        3.4184377220715447       -2.3192710847142424       -0.3311828989842779        0.1691966627363242
-        2.8087092820830333       -1.7391228905958089       -0.2039557426006008       -0.6800109224217911
-        0.6804104213399924        0.7885227063111899       -0.5906215693184467       -0.9821368279659007
+        0.3926234009623270        0.9385369490754949       -0.3433597361060097        0.8921713087406896
-        1.0899282316271341        0.9029144615799007        0.6636775640207025       -0.3335771210350215
+        1.4811318525710158       -0.1948540258448151       -0.1508135588734919        0.9988617281482304
+        4.2587563186589383        3.2595549813183924       -0.0494702605968953        0.0655379221577991
+        2.0093645445161883        2.0907968435283593        0.0582703773224391        0.9908754307264420
-        1.7225244577858647        2.0697448237508218       -0.5923865866194600       -0.6595771554465193
-        1.9192223236903785        2.1110740336561422        0.7569237803929920       -0.5578053818499882
+       -0.3762685858259213        4.2378271826819356        0.2236254019941147        0.0943160920587207
