21
s                      x[A]                      y[A]                      z[A]                      q[e]
N 1.9247995157147368 1.3932959269758147 0.5132460656935389 0.0707249461841811
O 1.6645453206129244 -0.0123228046440282 -0.1905124305281919 -0.3496602100029151
N 1.4548287321206341 0.1027712875042999 0.3016912332862322 0.9824851761690530
N 3.0407542052487346 -0.6569699694042881 0.0971118948425343 0.1071394941056757
O 1.4859337778690027 -0.0384720790291595 0.4234866211870956 -0.8194842575378962
N 0.5112518008971466 -0.6234797404322544 -0.0355183226134052 0.3116552922920345
N 0.7938834936596613 -1.9398415621504670 -0.5028734364919580 0.0918298459672651
N 1.2753646702257264 -0.9545152258809605 -0.1813849796023940 0.5593901217632046
O 0.9739066523129016 -0.7724671850327076 -0.1392252584373396 -0.9963138680841535
N -0.7417805785346580 0.8776960392647732 0.0190928466388643 0.9989733053171830
O -0.7149921115646580 0.9750384200905458 0.0326503049059369 -0.8354521971080898
N -0.5573456007786934 1.7330526578026557 -0.0735408545612144 0.2899344186932475
O -0.5579892068919831 1.3457495683851515 -0.0823227728461749 -0.8678253524624289
N -0.5166379326586670 -0.4098248285241220 -0.0035261028853153 0.9219570073558310
O -0.6233387208870781 -0.2369085775202316 0.1684276416380395 -0.9704818863270434
O -0.8114933009965450 -0.2589643608788199 -0.4793168390242650 -0.3320651923316272
N -0.6132663294051559 0.3372849499267692 -0.0620853137787294 0.9769593393400061
O -1.4042920365728109 -0.5633917289548500 0.6158863166396478 -0.1970026432733326
O -1.5705138776750402 -0.5445625756622615 -0.3748515326446125 -0.1946060569702309
N -2.7392711651238049 -0.0420448998208949 0.3055444981405332 0.1283355164991325
N -1.6548687145272656 -1.9279995136841219 0.1568045749434292 0.1235072004109040
