25
s                      x[A]                      y[A]                      z[A]                      q[e]
N 0.0646626009878319 -0.0039085440327271 0.2444415256939184 0.1158659338886357
O -0.1728388340049472 0.4384890386014400 0.3081142368450782 -0.2341991647481463
N -0.0841577968645625 -0.0068206155869239 -0.3912725762180241 0.0569852111266852
N -0.5110764509225135 -0.0303230299302540 0.1384477857914907 0.3189271149812888
O -0.2393872481440971 -0.3415153048251179 0.2752468468174926 -0.2877498234141676
N 0.0374975577750344 0.1131707903336313 -0.5536703371144904 0.5692545008206258
O -0.1595266013557902 -0.4960518159517331 0.0437813896454885 -0.2058946535748549
O -0.0710507966927858 0.1685329743947367 -0.2728928575571964 -0.9992971180892700
N -0.1857459100854609 -0.0191558798410956 0.2423295347584469 0.6691943173322236
N 0.0172756416462043 -0.0197719371542559 0.3802274102201017 0.0628076875181509
N 0.0579717486302741 0.0052530013035253 0.2960463773366357 0.7576134719858190
O 0.0369310587345604 -0.0757682311995576 -0.0571775054364698 -0.9235083265987739
N 0.1064854348326218 -0.0095031621252859 -0.4753917986561358 0.9955526175656415
O 0.0702176700179526 0.0510613365669747 0.0961381576963627 -0.9936641819349231
O -0.0416128542072793 0.1164463560791796 -0.1246212603443747 -0.9934394819660318
N -0.0277333255602337 -0.0526743748787321 0.2971337140104082 0.8475065253219278
N -0.0797478911826733 0.0191103856500444 -0.4031274240310651 0.9207393412409772
O 0.1570922406666039 -0.2559291800408083 -0.2267952583729479 -0.6738758902636315
N -0.0643414640113603 0.0227621387289296 0.2201920219329674 0.1207489421105395
N 0.2626447703337778 0.0761602700643906 -0.4897435830336901 0.4308753055723465
O 0.3484655036404136 -0.2120445999883482 -0.1255581021398726 -0.7095764258838037
N 0.4490807305403104 -0.0077652636603310 0.1029907394787282 0.9977500474782615
O 0.3043607567454461 0.1256900643522844 -0.0344379727010063 -0.9963537733476465
O -0.0340569858720454 -0.3711474652796237 -0.1408012279253086 -0.1586318904925156
N -0.0305518044570499 -0.2008938669837237 -0.0939441311869384 0.3123697133706422
