21
s                      x[A]                      y[A]                      z[A]                      q[e]
N       -2.0431020595582834        1.6689087006661449        0.0402933693872004        0.0690680479201058
O       -1.8767354295888781       -0.2302295705549773        0.3951290353698002       -0.3117950550350966
N       -1.9684315091752818       -0.2877960552179007        0.0487331728935745        0.5776243102962968
N       -3.3403260866941311       -0.4493200089465387        0.0754699982489256        0.0604184539076988
O       -1.8886361639330291       -0.2429879184601736       -0.2726360746022485       -0.3968494342195521
O       -0.9742239205235226       -0.1575076168932402        0.0802739825281471       -0.9828651838991298
N       -0.7292673131567375       -0.0063885119226819        0.0742243173672770        0.7759263489545838
N       -1.0065780094176824       -1.3429115962972991        0.0008555481899739        0.9970342621901004
O       -1.1038819245039213       -1.3710497046558348       -0.2897505769848562       -0.3970377457969525
O       -1.1290329893979938       -1.3895345144697224        0.2610988033441048       -0.3893757401670396
N        1.7534645365009531       -1.3558692089398001       -0.1980962181018965        0.1691966627363242
O        1.3797887355391936       -0.9965636587337128       -0.1446125540609624       -0.6800109224217911
O        0.3371162725298175        0.3785919194794281       -0.3654153503209067       -0.9821368279659007
N        0.2718973634620880        0.4410197017219911       -0.2513612654969974        0.8921713087406896
O        0.5757216685701330        0.4342726600876710        0.2916705062830128       -0.3335771210350215
N        0.8260377630481816       -0.1929315894707058       -0.1304619927359832        0.9988617281482304
N        2.2778156133632961        1.6491374206513076        0.2709730085077702        0.0655379221577991
N        1.1020822446154139        1.0302330207551440        0.1545676865415082        0.9908754307264420
O        0.9334747072116505        1.1105249643046899       -0.1630745289546195       -0.6595771554465193
O        1.0422685338729132        1.0644128549741716        0.3411957263111304       -0.5578053818499882
N       -0.0736978056281107        2.2232730436238417       -0.0185628057794955        0.0943160920587207

        RMSE         8.453541441E+00 kcal/mol

Coordinates in bohr
s                   x[bohr]                   y[bohr]                   z[bohr]                      q[e]
+       -3.8609033389239840        3.1537803726526925        0.0761434328137153        0.0690680479201058
-       -3.5465159718664232       -0.4350708343306769        0.7466856610652616       -0.3117950550350966
+       -3.7197964490629105       -0.5438557243489707        0.0920923499934409        0.5776243102962968
+       -6.3123014735742098       -0.8490917595972193        0.1426176273792512        0.0604184539076988
-       -3.5690051004686989       -0.4591806176848066       -0.5152075129181384       -0.3968494342195521
-       -1.8410163946592515       -0.2976462586017587        0.1516958419779849       -0.9828651838991298
+       -1.3781154941147222       -0.0120725378830909        0.1402636316732165        0.7759263489545838
+       -1.9021567617079302       -2.5377351277032822        0.0016167517661819        0.9970342621901004
-       -2.0860345121557260       -2.5909084461893701       -0.5475492351947624       -0.3970377457969525
-       -2.1335631365691401       -2.6258396742187928        0.4934052300051305       -0.3893757401670396
+        3.3135677446896525       -2.5622214668373791       -0.3743475987015458        0.1691966627363242
-        2.6074228211608363       -1.8832323815909364       -0.2732781214781833       -0.6800109224217911
-        0.6370574275165574        0.7154350411275018       -0.6905349341447419       -0.9821368279659007
+        0.5138115511774104        0.8334064521856653       -0.4750039503378173        0.8921713087406896
-        1.0879562780891532        0.8206563913397389        0.5511773757485210       -0.3335771210350215
+        1.5609851414468916       -0.3645878650488972       -0.2465374360524768        0.9988617281482304
+        4.3044476735483679        3.1164180682749123        0.5120647734710397        0.0655379221577991
+        2.0826336100529526        1.9468582546303326        0.2920905954090643        0.9908754307264420
-        1.7640115416719528        2.0985880380196948       -0.3081661977622735       -0.6595771554465193
-        1.9696020782022712        2.0114487803178465        0.6447664779047021       -0.5578053818499882
+       -0.1392686686843538        4.2013771545621150       -0.0350786190433123        0.0943160920587207
