21
s                      x[A]                      y[A]                      z[A]                      q[e]
N -0.0495293757869351 -0.2779125508309857 0.3663552157529721 0.0690680479201058
O -0.3062650988573926 0.3462150875505083 0.3596087409951349 -0.3117950550350966
N -0.4174273523027626 -0.0156781491477738 0.2856831567332195 0.5776243102962968
N -0.0196128897231571 0.0540638968306200 -0.3982010343609115 0.0604184539076988
O -0.2396805853467440 -0.3216466917733188 0.3226598974589728 -0.3968494342195521
O 0.4019300150452136 -0.0049422560802419 0.0920849117354614 -0.9828651838991298
N 0.4187982150155393 -0.0020578633625610 0.2970085977340619 0.7759263489545838
N -0.1123353909387348 -0.1839638388921738 -0.2367676623694713 0.9970342621901004
O -0.1529414762361864 -0.4580210336479026 -0.3048508211145468 -0.3970377457969525
O -0.1841639486178464 0.0866425244408570 -0.2149481367682602 -0.3893757401670396
N 0.0433894177719884 -0.0240825873962801 0.4915756125076457 0.1691966627363242
O 0.0421327820770484 -0.0043451440211138 -0.0087354021273589 -0.6800109224217911
O 0.2122384149050774 -0.3712111355265066 -0.3585436985814776 -0.9821368279659007
N 0.1171975654496784 -0.2578843078996853 -0.4551557841420448 0.8921713087406896
O 0.3732738136731401 0.3047129480218523 -0.2877436913421177 -0.3335771210350215
N 0.0972569879434465 -0.0741186608025719 0.3719784847913988 0.9988617281482304
N -0.0497566897323621 -0.0525068766135834 0.3637677707119563 0.0655379221577991
N 0.3071487166669124 -0.0119281535529348 0.1360813258328893 0.9908754307264420
O 0.2236109389108722 0.3478540479593966 0.0326148450064581 -0.6595771554465193
O 0.1615759689928134 -0.3641368731902593 0.0675536832722987 -0.5578053818499882
N 0.1455713056244081 0.1383678283888022 -0.3114845571680649 0.0943160920587207
