11
s                      x[A]                      y[A]                      z[A]                      q[e]
C 0.8392267116794240 -1.2649538016417905 -0.6582545026156439
C 0.5825183747533972 -0.0059118383997929 0.1186459838610714
H 0.7729387254887641 -2.1210495005756824 0.0210126079858822
H 1.8310788021057025 -1.2315769985324669 -1.1083218573347966
H 0.0857067819864934 -1.4077793956382536 -1.4389528799729057
O -0.6994224969581870 0.0845632141753246 0.6586018048903894
O 1.4196205166597886 0.8495490581775095 0.3637534167113553
C -1.7943095446803157 0.5114725352672777 -0.2046813626797536
H -1.6177783492373354 1.5323377797223086 -0.5541309929157826
H -2.6822395485947799 0.4801333154115550 0.4222745478577621
H -1.9159060137257040 -0.1686051720203395 -1.0549819172652799
