24
s                      x[A]                      y[A]                      z[A]                      q[e]
N       -1.0946402600984386        0.9028326354443752       -0.2595694346323779        0.6959175615854226
O       -1.0925298212589143        1.0014932433686774       -0.5747865715461256       -0.4294665048044459
N       -1.2344630068423001        1.5213828770654585        0.8726556300584158        0.7289443612696791
O       -1.1621862111196744        1.4453259184925691        0.6827716784693743       -0.8899528116456963
N       -2.1005912355873511        0.9814014961239619       -0.4167803614457508        0.4821174903544280
O       -1.8860862741805791        0.9544032186458320       -0.2839057901922233       -0.6035297564939646
N       -0.3658745416335554        2.0839221801737335       -0.8475470576366220        0.0604057803354635
N       -1.2772996456959596       -1.4995022714412412       -0.2414412496722158        0.6991174418445399
O       -0.8699734368145525       -1.5777066990608239       -0.0954957464385645       -0.4131324281244263
O       -1.3096634194804035       -1.2681759281327358       -0.2670777949225005       -0.9286014603942530
O       -0.0286329393820718       -0.2511405852542753        0.2906082812937830       -0.1057946580878595
N       -0.6611757177588580       -0.0317666509594281       -0.1266642155701705        0.9961038253671308
O       -0.5287022524070898        0.1645802457796960       -0.3593467659700763       -0.3737552305035935
N        0.4317762583071364       -0.1761048012572073        0.5024892952472807        0.9714181100989372
O        0.8624100819951765       -0.1835415402958580        0.4302512785388141       -0.9973398242463560
N        0.9521300019349904       -0.4087005552772595        0.6695445376569487        0.7637225416907655
O        0.7003916358447219       -0.2189927051384769        0.8905168905336711       -0.9974375214017446
O        2.1405931532102209        0.2445437421497758       -0.0150268730170089       -0.4871145088925188
N        1.3507061917809509        0.2740893746821283       -0.0532232871691673        0.4662300369825688
N        2.3423456267212237        0.2021871832027408        0.0093569704943016        0.6223673236702755
N        2.1610950134408640       -0.6427386656593449       -0.8855799172937470        0.9509229066582735
O        2.1652493240774700       -0.6257048751687172       -0.7608386278999973       -0.9922381659518612
O        1.7377656766118434        0.8090025030634436       -0.5023663361483552       -0.6086911331096487
N        1.7571805445727735        1.1034049280579159       -0.6505188738335864        0.3897866237988844

        RMSE         1.487830384E+00 kcal/mol

Coordinates in bohr
s                   x[bohr]                   y[bohr]                   z[bohr]                      q[e]
+       -2.0685702974859717        1.7061064181151790       -0.4905151419951224        0.6959175615854226
-       -2.0645821460747418        1.8925479464632846       -1.0861892008130485       -0.4294665048044459
+       -2.3327969949411202        2.8749969696147923        1.6490801426492501        0.7289443612696791
-       -2.1962136457996957        2.7312701479767392        1.2902514785262686       -0.8899528116456963
+       -3.9695421367971568        1.8545800467888502       -0.7876007376017917        0.4821174903544280
-       -3.5641865071864567        1.8035606964960684       -0.5365041888949933       -0.6035297564939646
+       -0.6914026799648375        3.9380421872953399       -1.6016318173708362        0.0604057803354635
+       -2.4137465105096823       -2.8336486175258693       -0.4562578372687725        0.6991174418445399
-       -1.6440115320027950       -2.9814335675250705       -0.1804608069150517       -0.4131324281244263
-       -2.4749051793485535       -2.3965051830691602       -0.5047038865947173       -0.9286014603942530
-       -0.0541084135989515       -0.4745869251177730        0.5491700614352591       -0.1057946580878595
+       -1.2494410273672452       -0.0600302702363312       -0.2393606773235735        0.9961038253671308
-       -0.9991024589620765        0.3110115901841620       -0.6790669717524331       -0.3737552305035935
+        0.8159388756754232       -0.3327898437543032        0.9495671489916784        0.9714181100989372
-        1.6297188628045129       -0.3468432438038536        0.8130570815664300       -0.9973398242463560
+        1.7992649394887639       -0.7723321167965586        1.2652558049679186        0.7637225416907655
-        1.3235483723079164       -0.4138362361848625        1.6828330332029473       -0.9974375214017446
-        4.0451348055975060        0.4621206983576539       -0.0283966745241791       -0.4871145088925188
+        2.5524647784261143        0.5179538520472172       -0.1005774362463198        0.4662300369825688
+        4.4263917256669867        0.3820784023309475        0.0176821115982197        0.6223673236702755
+        4.0838777064958371       -1.2146000483383683       -1.6735035058907763        0.9509229066582735
-        4.0917282158390984       -1.1824108494326540       -1.4377766324001122       -0.9922381659518612
-        3.2839011990173002        1.5287931655997660       -0.9493347899700763       -0.6086911331096487
+        3.3205899822253837        2.0851331195099592       -1.2293025109867330        0.3897866237988844
