25
s                      x[A]                      y[A]                      z[A]                      q[e]
N 0.0677834779297671 -0.0033209566796728 0.2408302958847924 0.1158659338886357
O -0.1666129104603889 0.4421335796543813 0.2999025553749095 -0.2341991647481463
N -0.0811235615254703 -0.0063739289601174 -0.3914581775533091 0.0569852111266852
N -0.5188285241809768 -0.0325681989900431 0.1496157151847372 0.3189271149812888
O -0.2319068292112426 -0.3401912182384382 0.2647375688746622 -0.2877498234141676
N 0.0274580615604452 0.1181921947590737 -0.5557297374532615 0.5692545008206258
O -0.1563904256193212 -0.4969560237338248 0.0447333050061327 -0.2058946535748549
O -0.0617827394481444 0.1627914699252044 -0.2683363306424886 -0.9992971180892700
N -0.1904208035180804 -0.0160108491170747 0.2398758350888687 0.6691943173322236
N 0.0180269347510822 -0.0215029930252545 0.3855336862169690 0.0628076875181509
N 0.0577856277444775 0.0046764173109784 0.2901506926250118 0.7576134719858190
O 0.0362584424382913 -0.0749573269230644 -0.0561834952696392 -0.9235083265987739
N 0.1051248237931761 -0.0098586686291016 -0.4799618157564454 0.9955526175656415
O 0.0693588941342639 0.0512643312394830 0.0965796558687647 -0.9936641819349231
O -0.0413116672475661 0.1152189353976203 -0.1263166617459226 -0.9934394819660318
N -0.0290484216948421 -0.0524244041603488 0.2957707820413502 0.8475065253219278
N -0.0804543089055394 0.0197850268414485 -0.3997465619284719 0.9207393412409772
O 0.1560457189532402 -0.2547475030747093 -0.2286113730302716 -0.6738758902636315
N -0.0656132679400866 0.0234681220830410 0.2204068522411424 0.1207489421105395
N 0.2638554789354535 0.0765353202677590 -0.4872705408674269 0.4308753055723465
O 0.3490014443325682 -0.2118891607994667 -0.1279860558882207 -0.7095764258838037
N 0.4488710964739703 -0.0065811095534927 0.1031329114968732 0.9977500474782615
O 0.3053262178235784 0.1239809627647808 -0.0378673468356165 -0.9963537733476465
O -0.0312534685238255 -0.3705111836907193 -0.1420069001228630 -0.1586318904925156
N -0.0343372917970395 -0.2006483662113204 -0.0901386099678661 0.3123697133706422
