21
s                      x[A]                      y[A]                      z[A]                      q[e]
N        1.8787840533059974        1.3447960974497999        0.7362136898565479        0.0707249461841811
O        1.6688458246602622        0.0317587398092826       -0.1449705042220869       -0.3496602100029151
N        1.4400768023555517        0.0844787842735450        0.3490899130596664        0.9824851761690530
N        3.0478567573471547       -0.6178641193263832        0.1036716545655602        0.1071394941056757
O        1.4684309663134736       -0.0699861270039376        0.4540491638025086       -0.8194842575378962
N        0.5337186592171529       -0.5953383782895617       -0.0884053816719353        0.3116552922920345
N        0.8493906060140930       -1.8560844499853284       -0.7167626607829534        0.0918298459672651
N        1.3026078049353624       -0.9025884313785243       -0.2588508710630846        0.5593901217632046
O        0.9961028051132347       -0.7301774053204677       -0.2073953849181105       -0.9963138680841535
N       -0.7645398887805727        0.8695352553444453        0.0044441786885643        0.9989733053171830
O       -0.7411034029137964        0.9674988124537128        0.0161374741959228       -0.8354521971080898
N       -0.6075263130078202        1.7293513655459314       -0.0966942985241426        0.2899344186932475
O       -0.5984247981297888        1.3419513762964412       -0.1049064306196376       -0.8678253524624289
N       -0.5042680316728518       -0.4122592270249406       -0.0220324833133668        0.9219570073558310
O       -0.6111645823158270       -0.2419155966215699        0.1520528861849322       -0.9704818863270434
O       -0.8199967968851248       -0.2716131830717865       -0.4888910493482144       -0.3320651923316272
N       -0.6236573359548896        0.3315766648707804       -0.0794065697696146        0.9769593393400061
O       -1.3552445786702716       -0.5845744323074836        0.6439491359009847       -0.1970026432733326
O       -1.5668425293725283       -0.5798398549522192       -0.3382612610189212       -0.1946060569702309
N       -2.7169849496064602       -0.1043140222624303        0.3914172990104065        0.1283355164991325
N       -1.5861589447497060       -1.9599853906789590        0.2085488779121057        0.1235072004109040

        RMSE         4.724765069E-01 kcal/mol

Coordinates in bohr
s                   x[bohr]                   y[bohr]                   z[bohr]                      q[e]
+        3.5503873096258962        2.5412963187646183        1.3912422436416254        0.0707249461841811
-        3.1536615542217112        0.0600153203292190       -0.2739545492492720       -0.3496602100029151
+        2.7213507560770553        0.1596417656886338        0.6596843288426534        0.9824851761690530
+        5.7596145410120982       -1.1675939682740593        0.1959110341019784        0.1071394941056757
-        2.7749323604738549       -0.1322546126189504        0.8580285670798814       -0.8194842575378962
+        1.0085820939669774       -1.1250264869414803       -0.1670619593765267        0.3116552922920345
+        1.6051156189032887       -3.5074912761932988       -1.3544851258342141        0.0918298459672651
+        2.4615720002116288       -1.7056449393119975       -0.4891572536454266        0.5593901217632046
-        1.8823614944643070       -1.3798353190530976       -0.3919204771791359       -0.9963138680841535
+       -1.4447710017832704        1.6431834890310419        0.0083982805739829        0.9989733053171830
-       -1.4004824621519001        1.8283077822432048        0.0304954065869368       -0.8354521971080898
+       -1.1480583455939479        3.2680004555683171       -0.1827257421038906        0.2899344186932475
-       -1.1308589751476887        2.5359205748814739       -0.1982444226704582       -0.8678253524624289
+       -0.9529284736853836       -0.7790570317700802       -0.0416353593259828        0.9219570073558310
-       -1.1549336781567396       -0.4571542230914982        0.2873383114749320       -0.9704818863270434
-       -1.5495693698655566       -0.5132745280695149       -0.9238701884558130       -0.3320651923316272
+       -1.1785415610873846        0.6265890861984885       -0.1500566694266305        0.9769593393400061
-       -2.5610410866982991       -1.1046855770061306        1.2168875055780841       -0.1970026432733326
-       -2.9609032622336913       -1.0957385224848863       -0.6392211421777650       -0.1946060569702309
+       -5.1343574417470483       -0.1971249331209041        0.7396714958961037        0.1283355164991325
+       -2.9974059970221392       -3.7038355982816968        0.3941002630254212        0.1235072004109040
