21
s                      x[A]                      y[A]                      z[A]                      q[e]
N 2.0153574970206409 1.4894924093012918 -0.5770924673049849 0.0707249461841811
O 1.6710634085866818 -0.0368577433059055 -0.3478761715515438 -0.3496602100029151
N 1.5541904709465206 0.3166503026297752 0.0533105253967913 0.9824851761690530
N 3.1074585152619401 -0.5134738963828995 0.0464702798679446 0.1071394941056757
O 1.6139262305717084 0.2517832242296990 0.2205903630209848 -0.8194842575378962
N 0.6443745521519787 -0.3251190950179218 -0.0082627532597574 0.3116552922920345
N 0.8467023277386317 -1.8165009170327764 0.4968142742935500 0.0918298459672651
N 1.4026146975696758 -0.6708330170772103 0.1343621443390453 0.5593901217632046
O 1.0654229629698089 -0.5708890857190355 0.0884659386333375 -0.9963138680841535
N -1.2900678919573862 -0.4637726887541109 -0.1504934383001799 0.9989733053171830
O -1.3383325192592925 -0.5503100518355237 -0.1742329156912749 -0.8354521971080898
N -1.7582388616107840 -1.2088138997355999 -0.1462824612687333 0.2899344186932475
O -1.4889198447280232 -0.9341366749171931 -0.1010803944584852 -0.8678253524624289
N -0.2287309436066757 0.2942091983063730 -0.0155390342433685 0.9219570073558310
O -0.4194154487866670 0.2622524493450276 -0.1986089747936869 -0.9704818863270434
O -0.5625545277376356 0.3471905190822374 0.4555447840855792 -0.3320651923316272
N -0.8213231373476295 -0.1746231174806713 -0.0236801389760754 0.9769593393400061
O -0.7633776980607098 1.1310068667949889 -0.4612933980039985 -0.1970026432733326
O -0.9062135792691728 1.0370471719199601 0.5288713388832612 -0.1946060569702309
N -2.0949944228889836 1.5994109785673221 -0.0643342110054633 0.1283355164991325
N -0.0152582123534106 2.1839290606816273 0.2220876593553105 0.1235072004109040
