21
s                      x[A]                      y[A]                      z[A]                      q[e]
N -2.1276055593667165 1.5885928881092501 0.0354309838642552 0.0690680479201058
O -1.8459565426837932 -0.2770466307863565 0.4112638824108282 -0.3117950550350966
N -1.9812638245818011 -0.3714103133654347 0.0655099198037032 0.5776243102962968
N -3.3165018548396668 -0.5845954957685382 0.1119088051429893 0.0604184539076988
O -1.8605124693107382 -0.3056242145844948 -0.2604715190207118 -0.3968494342195521
O -0.9227389973425910 -0.1665666663344274 0.0829939730926417 -0.9828651838991298
N -0.7623457490897416 -0.0188549012757201 0.0696166736232349 0.7759263489545838
N -0.9980940847956861 -1.3900305239409307 0.0294068182621493 0.9970342621901004
O -1.0169281022084471 -1.3948822264311440 -0.2506334235599663 -0.3970377457969525
O -1.0352530496173074 -1.4000888233829258 0.3011309635456884 -0.3893757401670396
N 1.8179303964128293 -1.2119916137425779 -0.2298171929372238 0.1691966627363242
O 1.4745836964486974 -0.9377960782987110 -0.1418815712897452 -0.6800109224217911
O 0.3574651540719974 0.4032659218493184 -0.4015833028769807 -0.9821368279659007
N 0.2088655870528516 0.4778963603391194 -0.2738516954058728 0.8921713087406896
O 0.5766235937640545 0.4829848282298758 0.2593029180571681 -0.3335771210350215
N 0.7822567984762987 -0.1242662947624380 -0.1472111093766986 0.9988617281482304
N 2.2842095633249775 1.6848822126951526 0.3023228739645548 0.0655379221577991
N 1.0840726392076545 1.0892170386373534 0.1963203516545705 0.9908754307264420
O 0.9587596660296958 1.1301630255217314 -0.1567658268822681 -0.6595771554465193
O 1.0051835057466201 1.0711718422991519 0.5608816377853739 -0.5578053818499882
N -0.1974436217715648 2.2432822939124968 -0.1046780093704721 0.0943160920587207
