21
s                      x[A]                      y[A]                      z[A]                      q[e]
N       -2.1273521572659186        1.5887246059279436        0.0354562683196629        0.0690680479201058
O       -1.8478636645118096       -0.2778266297173957        0.4110016467419970       -0.3117950550350966
N       -1.9775869585696708       -0.3699121510232098        0.0657452292343449        0.5776243102962968
N       -3.3160081010550799       -0.5845161932877927        0.1118877968506454        0.0604184539076988
O       -1.8628644087851411       -0.3066130847317172       -0.2605418078608279       -0.3968494342195521
O       -0.9281948814795692       -0.1681569493439339        0.0823571219027023       -0.9828651838991298
N       -0.7580438970076621       -0.0176849692832656        0.0701280121388199        0.7759263489545838
N       -0.9915286889942178       -1.3877787085474389        0.0300017713157370        0.9970342621901004
O       -1.0195350340469309       -1.3957599316298968       -0.2508621620748414       -0.3970377457969525
O       -1.0378572971879680       -1.4009606888148640        0.3008427126516828       -0.3893757401670396
N        1.8189633695319329       -1.2123588389707700       -0.2297039716595385        0.1691966627363242
O        1.4705605286145735       -0.9369319097030832       -0.1423183309060688       -0.6800109224217911
O        0.3524847812650078        0.4024545745234638       -0.4021207945890694       -0.9821368279659007
N        0.2134107116594460        0.4786794406718828       -0.2732467444467250        0.8921713087406896
O        0.5749650270053899        0.4827441173287725        0.2590380529503609       -0.3335771210350215
N        0.7874796688251988       -0.1240167174125904       -0.1465206886779558        0.9988617281482304
N        2.2843488180333038        1.6848683435266532        0.3023230125353861        0.0655379221577991
N        1.0880039910445880        1.0897756577030617        0.1969914222222371        0.9908754307264420
O        0.9559049628226806        1.1296398585059471       -0.1570518679748938       -0.6595771554465193
O        1.0028632740018952        1.0706391116323353        0.5601052197363994       -0.5578053818499882
N       -0.1969892406265615        2.2433281550683124       -0.1046251007888805        0.0943160920587207

        RMSE         8.071650784E+00 kcal/mol

Coordinates in bohr
s                   x[bohr]                   y[bohr]                   z[bohr]                      q[e]
+       -4.0201129496344770        3.0022543939797277        0.0670026365549097        0.0690680479201058
-       -3.4919562431122060       -0.5250162405248608        0.7766805494545409       -0.3117950550350966
+       -3.7370977409737947       -0.6990326559128613        0.1242404773083553        0.5776243102962968
+       -6.2663471407935862       -1.1045755212090995        0.2114372928285827        0.0604184539076988
-       -3.5203035414668324       -0.5794147566247407       -0.4923526610886203       -0.3968494342195521
-       -1.7540341170481744       -0.3177705803525204        0.1556324048770516       -0.9828651838991298
+       -1.4324953564192422       -0.0334197484825063        0.1325227366651516        0.7759263489545838
+       -1.8737176677333229       -2.6225216818962203        0.0566951310653595        0.9970342621901004
-       -1.9266419896580218       -2.6376040076682479       -0.4740607815616638       -0.3970377457969525
-       -1.9612660489931524       -2.6474320143928431        0.5685103337514873       -0.3893757401670396
+        3.4373426006552954       -2.2910261714327844       -0.4340775963664545        0.1691966627363242
-        2.7789566499900338       -1.7705447075410110       -0.2689426680447504       -0.6800109224217911
-        0.6660996999827732        0.7605289237870040       -0.7598981711248253       -0.9821368279659007
+        0.4032877972754027        0.9045730447571975       -0.5163615116772751        0.8921713087406896
-        1.0865264327566508        0.9122541704272604        0.4895109761480251       -0.3335771210350215
+        1.4881209034458567       -0.2343576308880928       -0.2768839733148060        0.9988617281482304
+        4.3167936410962442        3.1839397267191711        0.5713076951152335        0.0655379221577991
+        2.0560295664793427        2.0593775312494631        0.3722598370644551        0.9908754307264420
-        1.8063985817008135        2.1347099529771727       -0.2967850179641105       -0.6595771554465193
-        1.8951369291435536        2.0232147001885843        1.0584454667411713       -0.5578053818499882
+       -0.3722557144461118        4.2392758226077003       -0.1977127863394059        0.0943160920587207
