21
s                      x[A]                      y[A]                      z[A]                      q[e]
N        1.7509902315336294        0.9912933770193093       -1.3569000998730658        0.0707249461841811
O        1.5673094627543080       -0.2556874889613323       -0.4022305493200899       -0.3496602100029151
N        1.4880071944463740        0.2433743372734794       -0.1936568346710474        0.9824851761690530
N        3.0877578619026567       -0.4762484361251635       -0.0581855172560702        0.1071394941056757
O        1.5733447159210363        0.2641725967600074       -0.0305871709948292       -0.8194842575378962
N        0.5507619496149238       -0.4954363582784497        0.4462242360116705        0.3116552922920345
N        1.0167078618470764       -1.4369450473919945        1.2941462034885949        0.0918298459672651
N        1.3638189186949137       -0.7151566435177507        0.5141753817402956        0.5593901217632046
O        1.0363808764658407       -0.5771540086185337        0.4705684869644780       -0.9963138680841535
N       -0.8736971386450019        0.8382692643803412        0.1556141489512361        0.9989733053171830
O       -0.8679148348224116        0.9377608455917338        0.1760425675579822       -0.8354521971080898
N       -0.7825786325053607        1.7124910637175188        0.1188165817703966        0.2899344186932475
O       -0.7339671045293695        1.3284165580879401        0.1088537762343079       -0.8678253524624289
N       -0.4883749440062291       -0.4178871684447133        0.1922769106736417        0.9219570073558310
O       -0.6627750308911121       -0.2654996686690264        0.3290091168585224       -0.9704818863270434
O       -0.6644060484125480       -0.2866578108611839       -0.3447439311499566       -0.3320651923316272
N       -0.6596812140373295        0.3131494291462836        0.1114251401707134        0.9769593393400061
O       -1.5203321860360819       -0.7281938998715070        0.3124152507897670       -0.1970026432733326
O       -1.2659320269255994       -0.6284810673415233       -0.6545450886664735       -0.1946060569702309
N       -2.6686199433154854       -0.3230420624672710       -0.5070595488725034        0.1283355164991325
N       -1.3675841151334154       -2.0616603185578111       -0.2733858428746624        0.1235072004109040

        RMSE         6.006939232E-01 kcal/mol

Coordinates in bohr
s                   x[bohr]                   y[bohr]                   z[bohr]                      q[e]
+        3.3088919859505510        1.8732729925467055       -2.5641695683664687        0.0707249461841811
-        2.9617856384440886       -0.4831793278429397       -0.7601055775074274       -0.3496602100029151
+        2.8119260702145192        0.4599108434116789       -0.3659583798513455        0.9824851761690530
+        5.8350167007252551       -0.8999791119541553       -0.1099546920820732        0.1071394941056757
-        2.9731906140270072        0.4992138577274221       -0.0578013761327746       -0.8194842575378962
+        1.0407892450954095       -0.9362390297404711        0.8432415966037136        0.3116552922920345
+        1.9212994084907886       -2.7154325969038888        2.4455818908944607        0.0918298459672651
+        2.5772442410514240       -1.3514501930502241        0.9716506519418886        0.5593901217632046
-        1.9584760181823810       -1.0906630084991558        0.8892455636339356       -0.9963138680841535
+       -1.6510483086352103        1.5840993290678460        0.2940681227640368        0.9989733053171830
-       -1.6401213380363269        1.7721111693461238        0.3326722391069936       -0.8354521971080898
+       -1.4788592870704409        3.2361391027200614        0.2245307987091147        0.2899344186932475
-       -1.3869968126557863        2.5103434753095470        0.2057038248047121       -0.8678253524624289
+       -0.9228948907075751       -0.7896922997035708        0.3633507014223020        0.9219570073558310
-       -1.2524632911760536       -0.5017216601842565        0.6217371236413572       -0.9704818863270434
-       -1.2555454675973905       -0.5417047542509279       -0.6514716132871078       -0.3320651923316272
+       -1.2466168246400788        0.5917666574299373        0.2105629984133976        0.9769593393400061
-       -2.8730114513267950       -1.3760870369862086        0.5903792614088820       -0.1970026432733326
-       -2.3922648243350877       -1.1876570923108973       -1.2369109543431456       -0.1946060569702309
+       -5.0429608258010612       -0.6104610250661817       -0.9582036766672301        0.1283355164991325
+       -2.5843594311287412       -3.8959733657984037       -0.5166243696105585        0.1235072004109040
