25
s                      x[A]                      y[A]                      z[A]                      q[e]
N       -2.0277300793441833        1.4143197361307671        0.0034262820174139        0.1158659338886357
O       -1.8528216164212004       -0.2064696797561889        0.4581896031661252       -0.2341991647481463
N       -3.3430218497652238       -0.5817005665105427        0.0005256135138482        0.0569852111266852
N       -2.1399579880586934       -0.4437830677466219       -0.0490458109920371        0.3189271149812888
O       -1.9130192394948284       -0.2358692215950933       -0.3281146429483036       -0.2877498234141676
N       -1.3615536983168255       -0.7982438886816482        0.1387932749063280        0.5692545008206258
O       -0.7557296625473086       -0.6830300439918071       -0.5029798156061072       -0.2058946535748549
O       -1.0708169374907515       -0.7202210329315757        0.1360590286792826       -0.9992971180892700
N       -0.5568155471173828       -0.6429203706403456       -0.0029184583442471        0.6691943173322236
N       -0.8150564189208576       -2.0531447164686671       -0.0312851052005566        0.0628076875181509
N        1.7226875428422677       -1.0704779544384144        0.0030712512255444        0.7576134719858190
O        1.4603297047506456       -0.8519018884753613       -0.0728360839295550       -0.9235083265987739
N        1.1985826178206995       -0.5068117852766848       -0.0115023248766572        0.9955526175656415
O        1.5901372663745805       -0.9310731241562483        0.0492730864052193       -0.9936641819349231
O        0.3450628110546003        0.1154066867106399        0.1097388180618355       -0.9934394819660318
N        0.6521740452681399       -0.1656006280712685       -0.0521282625843831        0.8475065253219278
N        0.1242144576830778        0.2720795638578449        0.0211057179548591        0.9207393412409772
O        0.4045899271937238        0.3272352296223465       -0.2488468998453692       -0.6738758902636315
N        2.0790975596684333        1.7308202580339038       -0.0247960359961459        0.1207489421105395
N        0.4381854665134464        0.9539622038113442       -0.0772732808882397        0.4308753055723465
O        0.8026609111335303        0.9612835221268143        0.2094622521866462       -0.7095764258838037
N        1.0445087250474250        0.9245212337159653        0.0035239255960373        0.9977500474782615
O        0.8755925540412988        1.0241572866262847       -0.1180421423778643       -0.9963537733476465
O        0.0237583895503429        2.2466498606581640        0.3649230369176839       -0.1586318904925156
N        0.0745357974146094        2.2135981851163513        0.2010458979030368        0.3123697133706422

        RMSE         5.813658775E-01 kcal/mol

Coordinates in bohr
s                   x[bohr]                   y[bohr]                   z[bohr]                      q[e]
+       -3.8318545063133782        2.6726769551169323        0.0064747346414933        0.1158659338886357
-       -3.5013254143641452       -0.3901711479501814        0.8658528635161815       -0.2341991647481463
+       -6.3173957274776980       -1.0992547577285916        0.0009932655890126        0.0569852111266852
+       -4.0439345174166839       -0.8386284571566126       -0.0926831503759191        0.3189271149812888
-       -3.6150824353768432       -0.4457282302396495       -0.6200468129246764       -0.2877498234141676
+       -2.5729635949230314       -1.5084623309287610        0.2622812776283384        0.5692545008206258
-       -1.4281220870990774       -1.2907397186039276       -0.9504940981288217       -0.2058946535748549
-       -2.0235507423590153       -1.3610205020350215        0.2571143010996563       -0.9992971180892700
+       -1.0522288864488125       -1.2149434209880912       -0.0055150869791842        0.6691943173322236
+       -1.5402334085568445       -3.8798812100565452       -0.0591202806351883        0.0628076875181509
+        3.2554076557097846       -2.0229101572289263        0.0058038236787556        0.7576134719858190
-        2.7596231948494117       -1.6098612549787514       -0.1376402506777192       -0.9235083265987739
+        2.2649928864154112       -0.9577354713272743       -0.0217362438229227        0.9955526175656415
-        3.0049239353321386       -1.7594732074297026        0.0931126386618838       -0.9936641819349231
-        0.6520742089737965        0.2180870309296229        0.2073763114683140       -0.9934394819660318
+        1.2324303316887204       -0.3129398332585011       -0.0985081396804345        0.8475065253219278
+        0.2347313058432880        0.5141558600253411        0.0398840266158415        0.9207393412409772
-        0.7645641555150604        0.6183849625875395       -0.4702524878769818       -0.6738758902636315
+        3.9289249758810545        3.2707762600783274       -0.0468577170297096        0.1207489421105395
+        0.8280505238663859        1.8027272992416226       -0.1460253376943477        0.4308753055723465
-        1.5168092936528164        1.8165625857351593        0.3958262902543414       -0.7095764258838037
+        1.9738354259907662        1.7470919288935622        0.0066592542630012        0.9977500474782615
-        1.6546301246281876        1.9353767811156912       -0.2230673203564628       -0.9963537733476465
-        0.0448968494320872        4.2455529364419213        0.6896045966447587       -0.1586318904925156
+        0.1408522436562195        4.1830943216804028        0.3799216856834958        0.3123697133706422
