25
s                      x[A]                      y[A]                      z[A]                      q[e]
N       -1.9720848070546901        1.3749979851725265        0.0443270779127162        0.1158659338886357
O       -1.7888458406601186       -0.1956853787561166        0.4757294988608941       -0.2341991647481463
N       -3.3412234324595711       -0.6292797572531299        0.0420964934692355        0.0569852111266852
N       -2.0955338805945249       -0.3717823235345294        0.0582402709964248        0.3189271149812888
O       -1.8823638233102784       -0.2694997246942475       -0.3454749416002295       -0.2877498234141676
N       -1.1905428912776774       -0.8395321122008144        0.1386372684625362        0.5692545008206258
O       -0.6869114912155269       -0.7431219122284377       -0.3234547268564100       -0.2058946535748549
O       -0.9541599701499952       -0.6431590921312946        0.2383396557234882       -0.9992971180892700
N       -0.4858401765314088       -0.5793828120497926        0.1161850366963530        0.6691943173322236
N       -0.7744592167557812       -2.0937512207170617       -0.0839717014745512        0.0628076875181509
N        1.3334853514942977       -0.9364382261910372        0.0409138341049219        0.7576134719858190
O        1.1966269766367699       -0.8111777906547961        0.0175141793681073       -0.9235083265987739
N        0.9307395445028083       -0.4969006200938992        0.0309812601618753        0.9955526175656415
O        1.2801281003125220       -0.8443569406093063        0.0585698396253600       -0.9936641819349231
O        0.3200346860413900        0.0180751857269309        0.0987842642887470       -0.9934394819660318
N        0.5586950947080203       -0.1988791760847635        0.0398063413486297        0.8475065253219278
N        0.1488135555140040        0.1532205467820917        0.0500285731044763        0.9207393412409772
O        0.4003613633933256        0.2176254813583603       -0.1030948797111582       -0.6738758902636315
N        2.1170133804038143        1.6849606292299069       -0.0222454074493093        0.1207489421105395
N        0.4132194185685542        0.8494976525991673       -0.0645015496066594        0.4308753055723465
O        0.7282494531316483        0.8622499019092317        0.1132757258382592       -0.7095764258838037
N        0.9317933857447547        0.7749467081929462       -0.0115269287692331        0.9977500474782615
O        0.7583995781215237        0.8929199222418572       -0.0895584750682162       -0.9963537733476465
O        0.1663521881849173        2.1294411485896312        0.1839676716744056       -0.1586318904925156
N        0.0885735030275483        2.1493428741574423        0.0928595087633286        0.3123697133706422

        RMSE         6.349141315E-01 kcal/mol

Coordinates in bohr
s                   x[bohr]                   y[bohr]                   z[bohr]                      q[e]
+       -3.7267001815097083        2.5983696150323987        0.0837660371968644        0.1158659338886357
-       -3.3804287195119973       -0.3697917726055439        0.8989984626483916       -0.2341991647481463
+       -6.3139972113107303       -1.1891663975029998        0.0795508434989792        0.0569852111266852
+       -3.9599851209414987       -0.7025667697666149        0.1100581616556877        0.3189271149812888
-       -3.5571520945261161       -0.5092806705584118       -0.6528530228329711       -0.2877498234141676
+       -2.2498000051255258       -1.5864857655866715        0.2619864681757653        0.5692545008206258
-       -1.2980745908271765       -1.4042968919382579       -0.6112408477433837       -0.2058946535748549
-       -1.8031010234585074       -1.2153945392262457        0.4503966741533001       -0.9992971180892700
+       -0.9181048743884463       -1.0948748365717156        0.2195578992323748        0.6691943173322236
+       -1.4635158150050067       -3.9566163819982512       -0.1586835180756051        0.0628076875181509
+        2.5199221066340893       -1.7696117809105900        0.0773159412007185        0.7576134719858190
-        2.2612972601781181       -1.5329038633915291        0.0330970023178668       -0.9235083265987739
+        1.7588428332436756       -0.9390060835476365        0.0585460967275017        0.9955526175656415
-        2.4190915150932724       -1.5956033698810499        0.1106809561039179       -0.9936641819349231
-        0.6047779072651084        0.0341571506906838        0.1866752050105759       -0.9934394819660318
+        1.0557807166348814       -0.3758271748569054        0.0752230832053977        0.8475065253219278
+        0.2812168636770822        0.2895448702110520        0.0945403016149057        0.9207393412409772
-        0.7565733280282828        0.4112525576882289       -0.1948210875911078       -0.6738758902636315
+        4.0005754928928789        3.1841141214236162       -0.0420377276284140        0.1207489421105395
+        0.7808715308154904        1.6053179076317445       -0.1218902634242184        0.4308753055723465
-        1.3761920174332520        1.6294161663113247        0.2140600984967568       -0.7095764258838037
+        1.7608343045706667        1.4644370403097544       -0.0217827384415111        0.9977500474782615
-        1.4331674963124383        1.6873741050022100       -0.1692409900925716       -0.9963537733476465
-        0.3143600760401152        4.0240605711147515        0.3476485154027724       -0.1586318904925156
+        0.1673796626944760        4.0616693818619360        0.1754790397072422        0.3123697133706422
