21
s                      x[A]                      y[A]                      z[A]                      q[e]
N -1.9503566074295766 1.4296635098290542 -0.1982853458887089 0.0707249461841811
O -1.6312795388678096 -0.0531295275626012 0.2775111519814614 -0.3496602100029151
N -1.4847522931826009 0.1211708213133917 -0.2201245570088085 0.9824851761690530
N -3.0459774192550673 -0.6584575477697411 0.0601229380570037 0.1071394941056757
O -1.5334101375169864 -0.0041873024687309 -0.3530496635959081 -0.8194842575378962
N -0.4959648355586695 -0.6411317930837217 -0.0804744342410019 0.3116552922920345
N -0.7423592570029618 -2.0030136650571491 0.2396028709435408 0.0918298459672651
N -1.2563868558132749 -0.9922065585742404 0.0345686510298665 0.5593901217632046
O -0.9580914959185144 -0.8025540063552096 0.0054541266237530 -0.9963138680841535
N 0.7212132302776753 0.8866489005645051 -0.0626132255833352 0.9989733053171830
O 0.6926410445083667 0.9838150030524759 -0.0735377150339767 -0.8354521971080898
N 0.5155785868204877 1.7336087098639035 0.0541942456776769 0.2899344186932475
O 0.5251501790102033 1.3470865286814484 0.0500587444429448 -0.8678253524624289
N 0.5234241542480633 -0.4046488624652237 -0.0750483472830252 0.9219570073558310
O 0.6321098118514297 -0.2266137618041796 -0.2404088900051134 -0.9704818863270434
O 0.7996571457006439 -0.2566018793341457 0.4126532200206008 -0.3320651923316272
N 0.6030116320539800 0.3430403905337421 -0.0004436314700345 0.9769593393400061
O 1.4894739099249235 -0.5430933801439022 -0.5575263009360045 -0.1970026432733326
O 1.5366637696353498 -0.5227859104434037 0.4459209808343961 -0.1946060569702309
N 2.7694572946113474 -0.0005471817037451 -0.0913686984869548 0.1283355164991325
N 1.7064288206879727 -1.9039042198716709 -0.0710155800428995 0.1235072004109040
