21
s                      x[A]                      y[A]                      z[A]                      q[e]
N 0.0276260283432874 -0.0476958967740533 0.3749133117961157 0.0707249461841811
O 0.1103863981960526 0.2812413135721307 0.3069218259465145 -0.3496602100029151
N 0.3670876306452854 -0.1694125416874292 0.3226831799694257 0.9824851761690530
N 0.0378306754442596 -0.0155491050432848 -0.1884910811904077 0.1071394941056757
O 0.2642217391754951 -0.3383052307725739 0.3144168067099558 -0.8194842575378962
N 0.0880348050644427 0.1233595152224297 0.2884066011349431 0.3116552922920345
N 0.0293671806080120 -0.0111586512607346 0.2475324375164725 0.0918298459672651
N 0.0738850271203462 0.0360908962477914 -0.5516338776535356 0.5593901217632046
O 0.0643412362352592 0.0627261474306805 -0.1944740162638485 -0.9963138680841535
N 0.2176373805868535 0.0837486647040005 -0.4235410221866535 0.9989733053171830
O 0.2057615921853658 0.0990878788697419 -0.3362505735330895 -0.8354521971080898
N 0.0284835591141759 0.0073846128002677 0.4284490599373004 0.2899344186932475
O 0.0412783985745967 -0.0028046662411237 0.0351214890145446 -0.8678253524624289
N -0.0054154685632279 0.0760341466179145 -0.3406790324133110 0.9219570073558310
O 0.1249562611461710 0.2425705038510599 -0.1883806109228419 -0.9704818863270434
O 0.2624550757947793 -0.4170895488666229 -0.2064208608557754 -0.3320651923316272
N 0.0841016459005728 0.0122485510265788 0.4023416604347421 0.9769593393400061
O 0.1951078246623676 -0.5145544465462659 -0.0982353096580635 -0.1970026432733326
O 0.2267496876472557 0.4894091521384483 -0.0758809645566428 -0.1946060569702309
N 0.0233171395418869 -0.0008882908930334 0.1851095717841846 0.1283355164991325
N 0.0358585484728715 0.0053871527329283 -0.1449878058332772 0.1235072004109040
