30
s                      x[A]                      y[A]                      z[A]                      q[e]
N -2.6767027833458066 -1.3661676290330129 0.1355598253614410 0.2137068255539760
N -1.9670716074473020 -0.9044981219156749 -0.0446606991833451 0.4524136045707061
O -1.9069078034884170 -1.2263039311683670 -0.4185388067890500 -0.5303393512711568
N -1.5904555483891563 -1.7771040362500230 -0.7486302197462109 0.2065219334641430
N -3.4782018748408379 -0.5682121909329373 -0.8820122930305132 0.0640972179527254
N -2.7162415552829171 -1.4771367623498253 0.9072447611073990 0.2729192555687945
O -2.6244166173454020 -1.2751860497433793 0.5015600867441004 -0.5760168259183410
O -2.1053052493404847 1.3713138286992725 -0.2294039172170499 -0.7855321009151053
O -1.5983512715351746 1.5735814443731386 0.0128328636677027 -0.7445427033607991
N -1.8778059453005180 1.4912932257244584 -0.1176530191953497 0.9977538426035523
N -1.7921383690324617 0.0380583542105670 0.0376524378877162 0.2084365764815679
N -1.1816023730896061 0.4324652167976459 0.2930925519616285 0.3300899125146088
N -0.2111714819032436 -0.5455775713114798 1.1461616109190793 0.6266498413516267
O -0.3341033377719481 -0.5248719870695379 0.8909674290641473 -0.5811225412727979
N -0.1466865643603857 -1.0352236323073283 1.5249077528942123 0.5003074335780895
O -0.1260391069651697 -0.9122158729581844 1.4478137055369937 -0.5967490130385100
N 0.0161377453084991 0.6973942599832241 1.5566245985060831 0.9708061175491041
O 0.1005225359970231 0.9627615871199984 1.3142955595719279 -0.1568654630532827
O 0.0044647931044801 0.5513752585112013 1.5661201876591959 -0.7813807259506527
N 0.6954162291498945 0.3402121091795680 -0.1973647753817277 0.1400529194232831
N 0.7489038060149273 -0.3373429662742630 -0.2468598819250377 0.1778327620465852
N 0.9881340823728877 -0.6585555448580156 -0.6468328360254957 0.7120624373414439
O 0.9557830147694102 -0.8028129887655363 -0.7708634378052094 -0.9970019554920370
N 1.8021296076963678 -0.2562680088537415 0.4607872267379654 0.9931708722557875
N 2.4620452014137948 -0.3988193919070274 0.8650441255094721 0.8506195801821621
O 2.1752525238763822 -0.3435464877814960 0.8053111439783505 -0.8089940633040810
O 2.3390185574374902 -0.3600006798697443 0.7141734282547890 -0.9883399134133223
N 1.3497827714367596 1.5323755606437921 -0.9025816563016928 0.2529889584625400
N 1.2880426920538472 0.7762716123233534 -0.5336708711583389 0.5419198115726583
O 1.2894715402420518 1.1807266656702542 -0.6973221476068477 -0.9654652454832693
