21
s                      x[A]                      y[A]                      z[A]                      q[e]
N -1.9166412933060326 1.3769349845691876 -0.9279401206195244 0.0707249461841811
O -1.6932944596568789 0.1978614972325295 0.1352245096996915 -0.3496602100029151
N -1.5047286108652433 0.1725279287296508 -0.3779802436674415 0.9824851761690530
N -3.1187851253538312 -0.3948379207273527 0.0850104040780210 0.1071394941056757
O -1.5499278908772891 0.0077183671327819 -0.4589337884099475 -0.8194842575378962
N -0.6173014764384455 -0.2849339119437303 0.3501782084597650 0.3116552922920345
N -0.9106335030682237 -1.6440877716611135 0.8896282514747104 0.0918298459672651
N -1.4074203152784812 -0.5837467982024169 0.3849801474799083 0.5593901217632046
O -1.0641571603873059 -0.5025486003487933 0.3479561531592519 -0.9963138680841535
N 1.2773700591012149 -0.5095684961916751 -0.0412991564662982 0.9989733053171830
O 1.3249506245949760 -0.5996395533394643 -0.0390526711999084 -0.8354521971080898
N 1.6831441828387999 -1.2656479172308046 -0.2361823645696533 0.2899344186932475
O 1.4281413412170947 -0.9789105277043768 -0.1834684409347984 -0.8678253524624289
N 0.2643762968554848 0.2935886437470158 0.1790712560665161 0.9219570073558310
O 0.4940775162265226 0.2368434993955091 0.3011931454434770 -0.9704818863270434
O 0.4658451140702865 0.3828237179354675 -0.3572239861175128 -0.3320651923316272
N 0.8096046036080711 -0.1932952411295152 -0.0125160664745959 0.9769593393400061
O 0.9662261782308013 1.0188373415261947 0.5819176973778941 -0.1970026432733326
O 0.8009612500106977 1.1036302934475983 -0.4055813548755662 -0.1946060569702309
N 2.1477909075422721 1.5343553202643485 -0.1176409394721806 0.1283355164991325
N 0.1175273389062588 2.1841357708447209 0.3471885486241290 0.1235072004109040
