10
s                      x[A]                      y[A]                      z[A]                      q[e]
C -1.5148854635287037 -0.5165607547284965 0.6660295849112033
C -0.5064507804185012 -0.0184048504422165 -0.0372558557415071
C 0.8259490519136395 -0.5929511122803125 -0.3205889345375378
C 1.9286862017431912 -0.2412898804367523 0.3470946676080257
H -2.4502270586264330 0.0195259684412983 0.7668458888937207
H -1.4110372475529098 -1.4767440541708838 1.1554126005476693
F -0.6901487659129680 1.2409315547551965 -0.6638539652661983
H 0.8792680649400191 -1.3104575685408455 -1.1366572474509908
H 1.8979743450374442 0.4824190350162260 1.1561190753846950
H 2.8955624025618594 -0.6678878635186639 0.1012891435525129
