25
s                      x[A]                      y[A]                      z[A]                      q[e]
N       -1.6806769090883424        0.1323929731171610       -1.6458275402220088        0.1158659338886357
O       -1.8119558655402932        0.3086760319106469        0.0327440135495310       -0.2341991647481463
N       -3.3704555481749390       -0.1386513704069316        0.0247306371117961        0.0569852111266852
N       -2.1715079070646111       -0.1570584408599307        0.1131902658366340        0.3189271149812888
O       -1.8784314888143168       -0.4740822133990078       -0.0427913421903822       -0.2877498234141676
N       -1.4821334930480050       -0.2512488299533291        0.5554393770726314        0.5692545008206258
O       -0.7487836053452382       -0.0289063449483313        0.9608989468626723       -0.2058946535748549
O       -1.2294276293050779       -0.1440363686714003        0.4088481255636656       -0.9992971180892700
N       -0.7003201499245381        0.0199163419507342        0.4628238047833889        0.6691943173322236
N       -1.1538115679464278       -0.4044341591863016        1.9395609306751875        0.0628076875181509
N        1.0494324040948646        1.5276510098901337       -0.0674149989947618        0.7576134719858190
O        0.9506701946606506        1.2069680863782581        0.0472599704424537       -0.9235083265987739
N        0.8671521335075325        0.7820967872342365       -0.0047804104310473        0.9955526175656415
O        0.9906949503188512        1.3418648418639418       -0.0934896772841316       -0.9936641819349231
O        0.3865289737523581       -0.1830252874513735       -0.0002648104430313       -0.9934394819660318
N        0.5669748256918632        0.2120323267009979        0.1248714670414946        0.8475065253219278
N        0.2956436459924857       -0.4303570598417953        0.1288912988258749        0.9207393412409772
O        0.6413476224251841       -0.3426469852277371        0.3066118419474637       -0.6738758902636315
N        2.6322703692017022       -0.8060740970516619       -0.4577946249752051        0.1207489421105395
N        0.8900413032128581       -0.8777086769322259        0.0699277094268859        0.4308753055723465
O        1.1369871230586974       -0.7192202047300920       -0.2963315939841214       -0.7095764258838037
N        1.3821679213510256       -0.5685495022205803       -0.1524387461712572        0.9977500474782615
O        1.3189906200686090       -0.7400639670468083        0.0001493466447456       -0.9963537733476465
O        0.9934536732620017       -2.2178873603446401       -0.4203795278685559       -0.1586318904925156
N        1.0597630858701761       -2.1646223090763601       -0.2585324481020496        0.3123697133706422

        RMSE         7.421979836E-01 kcal/mol

Coordinates in bohr
s                   x[bohr]                   y[bohr]                   z[bohr]                      q[e]
+       -3.1760190635579519        0.2501864601265351       -3.1101633007555245        0.1158659338886357
-       -3.4241003372880439        0.5833131618042037        0.0618772178568938       -0.2341991647481463
+       -6.3692379040804674       -0.2620131169885090        0.0467341310493780        0.0569852111266852
+       -4.1035552236182449       -0.2967974389166843        0.2138986024990039        0.3189271149812888
-       -3.5497210592950585       -0.8958855442749782       -0.0808639172805711       -0.2877498234141676
+       -2.8008263832288836       -0.4747914779535173        1.0496283019621733        0.5692545008206258
-       -1.4149959413354005       -0.0546250752403575        1.8158358438113051       -0.2058946535748549
-       -2.3232815104574880       -0.2721892888944207        0.7726109842221215       -0.9992971180892700
+       -1.3234132834969425        0.0376364317078541        0.8746102353829638        0.6691943173322236
+       -2.1803878638038245       -0.7642697966419242        3.6652389626142012        0.0628076875181509
+        1.9831398309200825        2.8868420239714205       -0.1273958848481146        0.7576134719858190
-        1.7965063035443105        2.2808391254228351        0.0893084008334694       -0.9235083265987739
+        1.6386800414356788        1.4779487314731692       -0.0090336664819611        0.9955526175656415
-        1.8721421299766783        2.5357570485036280       -0.1766698856244447       -0.9936641819349231
-        0.7304338999462342       -0.3458676673162894       -0.0005004192124903       -0.9934394819660318
+        1.0714271405868121        0.4006830272084851        0.2359728735925585        0.8475065253219278
+        0.5586855216576058       -0.8132569792582585        0.2435692547354477        0.9207393412409772
-        1.2119713575971331       -0.6475089597942173        0.5794124081028685       -0.6738758902636315
+        4.9742700859489792       -1.5232592802533544       -0.8651064629098139        0.1207489421105395
+        1.6819343034178704       -1.6586290173398519        0.1321442193974098        0.4308753055723465
-        2.1485942707531551       -1.3591292108355826       -0.5599855549503560       -0.7095764258838037
+        2.6119188307467738       -1.0744028479622740       -0.2880674811718592        0.9977500474782615
-        2.4925310339774707       -1.3985182130383149        0.0002822242563253       -0.9963537733476465
-        1.8773553607952498       -4.1911996881659670       -0.7944021764208372       -0.1586318904925156
+        2.0026619901646794       -4.0905433292104476       -0.4885555214570132        0.3123697133706422
