10
s                      x[A]                      y[A]                      z[A]                      q[e]
C -1.6686229520920750 -0.6396735683127031 -0.3069006627857088
C -0.5250786063362912 -0.0748884667049832 0.0722101077948065
C 0.8054385655709729 -0.6813720435527675 0.1761715296303333
C 1.9392405910736434 -0.0686945258300736 -0.1847313556464084
H -2.5766156073077422 -0.0597019786851270 -0.4080146340352815
H -1.7083939415652591 -1.7029630141511585 -0.5087564053649705
F -0.5198129407180876 1.3218151524765269 0.2830371265295632
H 0.8162314459001514 -1.7251608668252976 0.4802839302051973
H 1.9503649771003366 0.9654466388985761 -0.5126351915620582
H 2.8908645547191312 -0.5861865465101636 -0.1387139536155435
