21
s                      x[A]                      y[A]                      z[A]                      q[e]
N       -1.9372493187844295        1.3393354249156153        0.7951705163404703        0.0690680479201058
O       -1.7318393863125765       -0.5199581684480241        0.3596180073892039       -0.3117950550350966
N       -1.9183793091960715       -0.4710899462110926        0.0272383898782640        0.5776243102962968
N       -3.2582570302990903       -0.6623289166372376        0.1105304674482094        0.0604184539076988
O       -1.8385603159876467       -0.2916538235452431       -0.2638129312044888       -0.3968494342195521
O       -0.5911521127109054       -0.9226980920197780       -0.2929674072093130       -0.9828651838991298
N       -0.3729156042672869       -0.9150484810026012       -0.2662002100882113        0.7759263489545838
N       -0.9965639122328607       -1.3919106659647844       -0.5314859516637563        0.9970342621901004
O       -1.0479957540241620       -1.2976466680448839       -0.7879018833177289       -0.3970377457969525
O       -0.9915836105788388       -1.5124416227172042       -0.2825019862095086       -0.3893757401670396
N        0.6035506684988765        1.7793832452067830       -0.0037263677473131        0.1691966627363242
O        0.5857656346209383        1.3291135699976058       -0.0484055435518038       -0.6800109224217911
O        0.6605215314043433       -0.4004062091922005        0.2608645700226343       -0.9821368279659007
N        0.6148417936089472       -0.5648640951899118        0.1338630466004297        0.8921713087406896
O        0.9206131515851578       -0.3310254403747248       -0.3864322900160782       -0.3335771210350215
N        0.6337372898350830        0.2598517709488780       -0.0124319721137856        0.9988617281482304
N        2.9154097000629591       -0.0797992152186766        0.4187546295509113        0.0655379221577991
N        1.6480740748384068       -0.4369977044373173        0.1550893438663838        0.9908754307264420
O        1.4660106800906743       -0.5010064046887409        0.4787107587356696       -0.6595771554465193
O        1.6901846920260695       -0.5181206770761897       -0.2074445828871454       -0.5578053818499882
N        1.4762318471339930       -2.1302327637549925        0.2063415866582931        0.0943160920587207

        RMSE         1.308911802E+00 kcal/mol

Coordinates in bohr
s                   x[bohr]                   y[bohr]                   z[bohr]                      q[e]
+       -3.6608706492323169        2.5309771432141996        1.5026544989223776        0.0690680479201058
-       -3.2727021334117281       -0.9825785350614334        0.6795795437484650       -0.3117950550350966
+       -3.6252114991255571       -0.8902309787956247        0.0514730969683615        0.5776243102962968
+       -6.1572134336128297       -1.2516202574155679        0.2088723119959473        0.0604184539076988
-       -3.4743754623518557       -0.5511458499431132       -0.4985341883307313       -0.3968494342195521
-       -1.1171155915093887       -1.7436466903998658       -0.5536281633110808       -0.9828651838991298
+       -0.7047083599747849       -1.7291910206111165       -0.5030454916060554        0.7759263489545838
+       -1.8832328606348989       -2.6303299497770571       -1.0043628881728168        0.9970342621901004
-       -1.9804249557483347       -2.4521968102177190       -1.4889187732029376       -0.3970377457969525
-       -1.8738214544866330       -2.8581004476785328       -0.5338513838338356       -0.3893757401670396
+        1.1405454662998640        3.3625470056691906       -0.0070418144851609        0.1691966627363242
-        1.1069366231385716        2.5116606369249976       -0.0914732202668303       -0.6800109224217911
-        1.2482047943222010       -0.7566580743060337        0.4929625931780950       -0.9821368279659007
+        1.1618826004061775       -1.0674384380134738        0.2529644963942107        0.8921713087406896
-        1.7397067239905404       -0.6255474228673000       -0.7302511941638792       -0.3335771210350215
+        1.1975899132781962        0.4910486803085782       -0.0234930224943839        0.9988617281482304
+        5.5093258766221442       -0.1507986617897651        0.7913315636187717        0.0655379221577991
+        3.1144086359118774       -0.8258059788402967        0.2930763848844183        0.9908754307264420
-        2.7703586823675455       -0.9467648919620111        0.9046322273205341       -0.6595771554465193
-        3.1939861693705569       -0.9791061796107745       -0.3920134478665406       -0.5578053818499882
+        2.7896738887619734       -4.0255565069740431        0.3899290870765970        0.0943160920587207
