25
s                      x[A]                      y[A]                      z[A]                      q[e]
N       -1.7527038394029391        0.9571009996475943       -1.2053325891922320        0.1158659338886357
O       -1.8832473615281702        0.2205974290722938        0.2459339728072442       -0.2341991647481463
N       -3.3838234867347321       -0.2745409487067973        0.0305243043187073        0.0569852111266852
N       -2.1280120459623690       -0.2133855629545841        0.0726743324906259        0.3189271149812888
O       -1.8369584116787823       -0.3993827317609520       -0.2569755892118776       -0.2877498234141676
N       -1.3357121108070169       -0.5140610164162615        0.5780883431992828        0.5692545008206258
O       -0.9107630801956507       -0.4651666471801906       -0.0826166230916491       -0.2058946535748549
O       -1.0521459489561646       -0.4039198647184604        0.5469517233473559       -0.9992971180892700
N       -0.5976495424768250       -0.4239754429970720        0.3089100651454031        0.6691943173322236
N       -1.0246923097013971       -1.3928917151984503        1.5223330298747835        0.0628076875181509
N        1.3218476771834513       -1.0902450798712804       -0.2140085952968128        0.7576134719858190
O        1.1317910158027800       -0.9003829496380399       -0.2040101667235293       -0.9235083265987739
N        0.9420913967203487       -0.5156154398683548       -0.0917136222723900        0.9955526175656415
O        1.2390108311711385       -0.9737710099193544       -0.1567296966202930       -0.9936641819349231
O        0.3431501514936344        0.1183027202311962        0.1773947297204189       -0.9934394819660318
N        0.5384596542345156       -0.1555619611219072        0.0027412639612102        0.8475065253219278
N        0.1574277714090865        0.2877787994153984        0.1717615751700139        0.9207393412409772
O        0.3910038518380193        0.3249502004170052       -0.0929830839525850       -0.6738758902636315
N        2.3062969730275333        1.4505914179306365       -0.1995742828341526        0.1207489421105395
N        0.5494158092396945        0.9035312017527043        0.0946123091705618        0.4308753055723465
O        0.9287290233393952        0.8353524152096774        0.2302381329293658       -0.7095764258838037
N        1.0725486476794772        0.7570629444409888        0.0148026692249136        0.9977500474782615
O        0.9203867777599777        0.9060707853251878       -0.0253878564969435       -0.9963537733476465
O        0.5145926937836858        2.1261058144916203        0.6674082349254938       -0.1586318904925156
N        0.4735059396720483        2.1474131120255939        0.5217891690625314        0.3123697133706422

        RMSE         4.333019146E-01 kcal/mol

Coordinates in bohr
s                   x[bohr]                   y[bohr]                   z[bohr]                      q[e]
+       -3.3121302355099753        1.8086587637358627       -2.2777484836622888        0.1158659338886357
-       -3.5588217397793067        0.4168687249267438        0.4647478535514845       -0.2341991647481463
+       -6.3944996468204236       -0.5188072032792125        0.0576825753324863        0.0569852111266852
+       -4.0213599585440534       -0.4032402731108036        0.1373345847577445        0.3189271149812888
-       -3.4713483019289111       -0.7547239822653868       -0.4856134845386039       -0.2877498234141676
+       -2.5241300718824413       -0.9714345328012147        1.0924286449663159        0.5692545008206258
-       -1.7210927867481642       -0.8790375658680301       -0.1561227910533917       -0.2058946535748549
-       -1.9882676875370831       -0.7632979209498663        1.0335889609736808       -0.9992971180892700
+       -1.1293939542863742       -0.8011974711841231        0.5837554205221479        0.6691943173322236
+       -1.9363878281984541       -2.6321838641442761        2.8767924982017505        0.0628076875181509
+        2.4979300894493135       -2.0602646105846150       -0.4044176336049184        0.7576134719858190
-        2.1387750511209669       -1.7014771828477839       -0.3855233419164605       -0.9235083265987739
+        1.7802947249514982       -0.9743719674086598       -0.1733136280685064        0.9955526175656415
-        2.3413911373893188       -1.8401605176580580       -0.2961762023384472       -0.9936641819349231
-        0.6484598062323325        0.2235597411336198        0.3352274552712058       -0.9934394819660318
+        1.0175412761119529       -0.2939695020595230        0.0051802381242749        0.8475065253219278
+        0.2974953725043536        0.5438231156081662        0.3245823359485638        0.9207393412409772
-        0.7388901939729470        0.6140668832007721       -0.1757125629708384       -0.6738758902636315
+        4.3582696429944381        2.7412204998284389       -0.3771407362412080        0.1207489421105395
+        1.0382454084598050        1.7074265171183931        0.1787913524295038        0.4308753055723465
-        1.7550434988753882        1.5785872829860226        0.4350870148732549       -0.7095764258838037
+        2.0268232003443716        1.4306416247261646        0.0279729907608299        0.9977500474782615
-        1.7392789394589778        1.7122256345430988       -0.0479760956916484       -0.9963537733476465
-        0.9724392574127512        4.0177577031326095        1.2612187778844015       -0.1586318904925156
+        0.8947965447577280        4.0580226599454630        0.9860386247583971        0.3123697133706422
