25
s                      x[A]                      y[A]                      z[A]                      q[e]
N       -1.8245187423023244        1.1800455794877440        0.7805783900587403        0.1158659338886357
O       -1.7137800584870018       -0.4636351663757423        0.4516618419933914       -0.2341991647481463
N       -3.2957240571494015       -0.5928046844284163        0.1253373522260103        0.0569852111266852
N       -2.1035914026054261       -0.4832409951966914        0.0042656900142327        0.3189271149812888
O       -1.8975914593043093       -0.1793763476995988       -0.2583481807715029       -0.2877498234141676
N       -1.3262189934418318       -0.8494593622263229       -0.4272759439464259        0.5692545008206258
O       -0.9110071849129145       -0.4475408120636021        0.2391073374675417       -0.2058946535748549
O       -1.0856974147082070       -0.6611914054065883       -0.4431360244711817       -0.9992971180892700
N       -0.6847974082163441       -0.3545906585993931       -0.2221894472764992        0.6691943173322236
N       -0.9017681188378697       -1.9531096110746009       -0.8674858302914169        0.0628076875181509
N        0.6387860101902320        1.6138287577720176       -0.1145084962826956        0.7576134719858190
O        0.5954341071546724        1.2714338144428987       -0.0315441816592567       -0.9235083265987739
N        0.6565983857984387        0.8426636423813085       -0.0839676131174798        0.9955526175656415
O        0.6492668294432642        1.4207859939017351       -0.1550576904787900       -0.9936641819349231
O        0.4893969643728364       -0.2111063921678199       -0.2079281094435713       -0.9934394819660318
N        0.4955074519941339        0.2115593428605330       -0.0497698425425520        0.8475065253219278
N        0.4285902263632024       -0.4831364115108171       -0.1184204059103762        0.9207393412409772
O        0.6358708342383985       -0.3134388212854923        0.1849518424553598       -0.6738758902636315
N        2.7935255793389846       -0.1656613359500192        0.4083845967054883        0.1207489421105395
N        1.0863099666082068       -0.7432908506501007        0.1482799055302035        0.4308753055723465
O        1.4131687953495073       -0.5080472714114264       -0.0893855926529142       -0.7095764258838037
N        1.5253437346272514       -0.3000361743407928        0.1287167595767170        0.9977500474782615
O        1.4450982570961954       -0.4855856741554387        0.2589774747925567       -0.9963537733476465
O        1.7461986278452255       -1.9827280995435090       -0.1093005673330770       -0.1586318904925156
N        1.7157927197345781       -1.9227090488437042        0.0527567172402491        0.3123697133706422

        RMSE         6.603744692E-01 kcal/mol

Coordinates in bohr
s                   x[bohr]                   y[bohr]                   z[bohr]                      q[e]
+       -3.4478407337161610        2.2299629607890119        1.4750793766618127        0.1158659338886357
-       -3.2385749498115319       -0.8761434865812271        0.8535171826873174       -0.2341991647481463
+       -6.2280158530950924       -1.1202384994581616        0.2368532689972015        0.0569852111266852
+       -3.9752116307919501       -0.9131931335154285        0.0080609858630000        0.3189271149812888
-       -3.5859281560929985       -0.3389721705371390       -0.4882073066684107       -0.2877498234141676
+       -2.5061906799854134       -1.6052455493138269       -0.8074345140552156        0.5692545008206258
-       -1.7215540778097251       -0.8457295647652008        0.4518473824010750       -0.2058946535748549
-       -2.0516707689161211       -1.2494706727250082       -0.8374057225747116       -0.9992971180892700
+       -1.2940795529522346       -0.6700792313985707       -0.4198772033194353        0.6691943173322236
+       -1.7040947732728817       -3.6908422579304512       -1.6393106369661663        0.0628076875181509
+        1.2071306120334517        3.0496943655769346       -0.2163896970123004        0.7576134719858190
-        1.1252073882788403        2.4026616959432463       -0.0596098641876851       -0.9235083265987739
+        1.2407911235767477        1.5924034999814112       -0.1586757922004370        0.9955526175656415
-        1.2269364899921082        2.6848964113606755       -0.2930165686509230       -0.9936641819349231
-        0.9248262292951029       -0.3989332645306752       -0.3929271806325713       -0.9934394819660318
+        0.9363733773923555        0.3997892172882394       -0.0940513717125829        0.8475065253219278
+        0.8099181478744281       -0.9129954989919352       -0.2237821348361585        0.9207393412409772
-        1.2016217278769656       -0.5923135293159020        0.3495083286394537       -0.6738758902636315
+        5.2789982694115940       -0.3130545545229975        0.7717350416289201        0.1207489421105395
+        2.0528283242447491       -1.4046161392872680        0.2802084113608443        0.4308753055723465
-        2.6705019922537310       -0.9600702017537364       -0.1689142896757433       -0.7095764258838037
+        2.8824819056285294       -0.5669861972342158        0.2432394233563963        0.9977500474782615
-        2.7308399302882540       -0.9176239345995846        0.4893965000205905       -0.9963537733476465
-        3.2998371672777340       -3.7468130893867184       -0.2065481376166780       -0.1586318904925156
+        3.2423783283527734       -3.6333935212541193        0.0996957468622901        0.3123697133706422
