25
s                      x[A]                      y[A]                      z[A]                      q[e]
N 0.0671586809038484 -0.0073586299456457 0.2424939391826904 0.1158659338886357
O -0.1682530470444828 0.4325436584005685 0.3028570337282040 -0.2341991647481463
N -0.0819698776076328 -0.0085026773715345 -0.3915592745692659 0.0569852111266852
N -0.5171269511438107 -0.0220017921562389 0.1453519383120941 0.3189271149812888
O -0.2338811237642325 -0.3505281213073386 0.2694917414832022 -0.2877498234141676
N 0.0274148913035305 0.1195728168568990 -0.5570225406422290 0.5692545008206258
O -0.1560032004592740 -0.4982634906307267 0.0457216905624518 -0.2058946535748549
O -0.0617049385357285 0.1612080137337096 -0.2672869237127132 -0.9992971180892700
N -0.1903811260122161 -0.0140269868746074 0.2386115766412926 0.6691943173322236
N 0.0166586530736014 -0.0175915629580244 0.3841181387730681 0.0628076875181509
N 0.0574373889189677 0.0058304643750275 0.2897376119302457 0.7576134719858190
O 0.0369647476161660 -0.0764587513691706 -0.0552535595439243 -0.9235083265987739
N 0.1047126097576617 -0.0081144764748418 -0.4806138866553740 0.9955526175656415
O 0.0701027444830223 0.0500009179349801 0.0976825105578701 -0.9936641819349231
O -0.0403809383350873 0.1129168679844458 -0.1257146859239232 -0.9934394819660318
N -0.0297024549863039 -0.0503155617793191 0.2951171654462306 0.8475065253219278
N -0.0812523702615656 0.0222335042411462 -0.4004567615870053 0.9207393412409772
O 0.1567978412653246 -0.2570617497551878 -0.2282193380607933 -0.6738758902636315
N -0.0654779082999726 0.0229743879169017 0.2202460255684020 0.1207489421105395
N 0.2639162957189135 0.0746396238218752 -0.4879107468026184 0.4308753055723465
O 0.3490359011488012 -0.2099823487167698 -0.1270292252742845 -0.7095764258838037
N 0.4486040051747870 -0.0085229431384423 0.1025181296291566 0.9977500474782615
O 0.3054022354654373 0.1260369494936558 -0.0369890742755693 -0.9963537733476465
O -0.0316497837475369 -0.3696549471573889 -0.1421958159364941 -0.1586318904925156
N -0.0340153581862915 -0.2021126467358829 -0.0903182639880795 0.3123697133706422
