21
s                      x[A]                      y[A]                      z[A]                      q[e]
N       -1.9824105217465402        1.4201078050460261       -0.1311148334160433        0.0707249461841811
O       -1.6425715758534816       -0.0809155628568346        0.2617265790299081       -0.3496602100029151
N       -1.4841234367926606        0.1214523771317570       -0.2207471183741537        0.9824851761690530
N       -3.0372801445319006       -0.7008097681406877       -0.0305155071855116        0.1071394941056757
O       -1.5269163597179234        0.0029097258802383       -0.3620845450390006       -0.8194842575378962
N       -0.4807123890914539       -0.6565413208983113       -0.0723790219260707        0.3116552922920345
N       -0.7302860809752002       -2.0143268669224503        0.1481590218936837        0.0918298459672651
N       -1.2378093725731647       -1.0176227895862981        0.0327559183258016        0.5593901217632046
O       -0.9418758489224913       -0.8237652420557952        0.0069996793249620       -0.9963138680841535
N        0.7143136459716942        0.8876608329967829       -0.0606169923974181        0.9989733053171830
O        0.6850656295009745        0.9840723902617765       -0.0763186367640403       -0.8354521971080898
N        0.4960960418162354        1.7361232068007919        0.0216902646784665        0.2899344186932475
O        0.5095988382246704        1.3489378916547539        0.0298311991639772       -0.8678253524624289
N        0.5325381704374520       -0.4043182189149281       -0.0496706081076836        0.9219570073558310
O        0.6422776036240435       -0.2275254884915529       -0.2157132353364600       -0.9704818863270434
O        0.7964035631855436       -0.2441734208968634        0.4410206957334473       -0.3320651923316272
N        0.6002380024942373        0.3455662666741863        0.0137439455388729        0.9769593393400061
O        1.4933577468722796       -0.5343472464424016       -0.5504871378720813       -0.1970026432733326
O        1.5513883777113469       -0.5011075707661865        0.4519769284148715       -0.1946060569702309
N        2.7704704607845945        0.0318877153528641       -0.1053974425974103        0.1283355164991325
N        1.7352642381828463       -1.8859093664492874       -0.0499415839854173        0.1235072004109040

        RMSE         5.962560968E-01 kcal/mol

Coordinates in bohr
s                   x[bohr]                   y[bohr]                   z[bohr]                      q[e]
+       -3.7462129543269209        2.6836148201620476       -0.2477711261413481        0.0707249461841811
-       -3.1040104198247587       -0.1529082530866854        0.4945915541195203       -0.3496602100029151
+       -2.8045868319113505        0.2295117300648381       -0.4171515967111700        0.9824851761690530
+       -5.7396276394562609       -1.3243385278315007       -0.0576659511600574        0.1071394941056757
-       -2.8854537363479227        0.0054985850138071       -0.6842406243847111       -0.8194842575378962
+       -0.9084147604973691       -1.2406832865441304       -0.1367765286687808        0.3116552922920345
+       -1.3800406862770469       -3.8065261056349682        0.2799799743947725        0.0918298459672651
+       -2.3391207096880717       -1.9230283713425020        0.0618997146236302        0.5593901217632046
-       -1.7798873986466022       -1.5566906991569278        0.0132274768902077       -0.9963138680841535
+        1.3498571585637444        1.6774358666596787       -0.1145495141800795        0.9989733053171830
-        1.2945864177212045        1.8596273052194108       -0.1442213217523333       -0.8354521971080898
+        0.9374856509563593        3.2807973809050801        0.0409886598309933        0.2899344186932475
-        0.9630022380961170        2.5491231754799895        0.0563727964139034       -0.8678253524624289
+        1.0063512934791667       -0.7640507012821172       -0.0938638458084672        0.9219570073558310
-        1.2137287673648025       -0.4299608598100420       -0.4076389364223412       -0.9704818863270434
-        1.5049846197594259       -0.4614208926112132        0.8334083305950830       -0.3320651923316272
+        1.1342854348059812        0.6530256022111366        0.0259722929516777        0.9769593393400061
-        2.8220371489193852       -1.0097699516686589       -1.0402699261653774       -0.1970026432733326
-        2.9316991480927692       -0.9469560681415700        0.8541126097297653       -0.1946060569702309
+        5.2354304095538353        0.0602590487834701       -0.1991723008327681        0.1283355164991325
+        3.2791741654668001       -3.5638522000248392       -0.0943759160039894        0.1235072004109040
