21
s                      x[A]                      y[A]                      z[A]                      q[e]
N -1.9795425577236800 1.4213032984073191 0.0450550738486790 0.0707249461841811
O -1.6334342004868416 -0.0841654623282434 0.2814790528759014 -0.3496602100029151
N -1.4861498694148567 0.1210817549937327 -0.1689499897930477 0.9824851761690530
N -3.0345419644258516 -0.6985285879087597 0.0146338153518118 0.1071394941056757
O -1.5487081967857945 0.0454099764299109 -0.3370373545943411 -0.8194842575378962
N -0.4866071150474405 -0.6438304424598432 -0.1267627815360335 0.3116552922920345
N -0.7268251876554894 -2.0253176807747559 -0.0084443994953925 0.0918298459672651
N -1.2477180602885074 -0.9949834058262784 -0.0394945098913520 0.5593901217632046
O -0.9347069248391755 -0.8323291954243835 -0.0579586548232813 -0.9963138680841535
N 0.7119594720734104 0.8824227996133231 -0.0835984428545133 0.9989733053171830
O 0.6907989235433937 0.9795242516851039 -0.0981705858665539 -0.8354521971080898
N 0.4976146466163845 1.7299543091484713 -0.0070412250553626 0.2899344186932475
O 0.5160754052321300 1.3449977278316532 0.0032902071128968 -0.8678253524624289
N 0.5286909681870530 -0.3984068606145251 -0.0789537156289767 0.9219570073558310
O 0.6467336331654556 -0.2346968096429592 -0.2389700406485337 -0.9704818863270434
O 0.7849108954618156 -0.2505749311208451 0.4186589723137290 -0.3320651923316272
N 0.5950658144729197 0.3448818129158568 -0.0138722728523546 0.9769593393400061
O 1.5181336587580168 -0.5414895294736313 -0.5123527781626179 -0.1970026432733326
O 1.5190058747543769 -0.5052008222371889 0.4911067782108457 -0.1946060569702309
N 2.7735799360781974 0.0261750689808896 -0.0000187139407602 0.1283355164991325
N 1.7359116962685568 -1.8862638396677769 0.0018975136158804 0.1235072004109040
