21
s                      x[A]                      y[A]                      z[A]                      q[e]
N 1.9094852545327510 1.3273835475486022 -1.0058043402802690 0.0707249461841811
O 1.6429029166093059 -0.0886031824426456 -0.3732370415170719 -0.3496602100029151
N 1.5350461814210101 0.3494523313163697 -0.0633140197163877 0.9824851761690530
N 3.1177699122674598 -0.4057437550240982 0.0653625080039675 0.1071394941056757
O 1.6053773028629723 0.3283923192295886 0.1109520187459497 -0.8194842575378962
N 0.6613205859768199 -0.2707814067319627 0.1027783292841608 0.3116552922920345
N 0.9135710991277741 -1.6256979436566106 0.9235567870824304 0.0918298459672651
N 1.4212731148287723 -0.5795899583906073 0.3074671852527895 0.5593901217632046
O 1.0845753663043798 -0.4962018380862738 0.2334768850324977 -0.9963138680841535
N -1.2481068747122408 -0.4998268280508016 -0.2071468411339829 0.9989733053171830
O -1.2902142566080637 -0.5880984568720518 -0.2357272571491710 -0.8354521971080898
N -1.6808328002939952 -1.2648153714863997 -0.2499136151089148 0.2899344186932475
O -1.4290258415700192 -0.9791145482657490 -0.1792607122543147 -0.8678253524624289
N -0.2374169386498412 0.3025403938368155 0.0253331171800137 0.9219570073558310
O -0.4101361444457144 0.2645551712652539 -0.1737186757494782 -0.9704818863270434
O -0.6122957550071000 0.3346413605220596 0.4664686638649630 -0.3320651923316272
N -0.8053902806393836 -0.1918691476790292 -0.0379204522256010 0.9769593393400061
O -0.7699487851653869 1.1321941400974889 -0.4215129613101720 -0.1970026432733326
O -0.9869188356895596 0.9960298040079696 0.5501042421961578 -0.1946060569702309
N -2.1466963864561204 1.5363509574188490 -0.1173047276216151 0.1283355164991325
N -0.1171151127910978 2.1821825282246370 0.3560370853074924 0.1235072004109040
