21
s                      x[A]                      y[A]                      z[A]                      q[e]
N 0.0729781971163931 0.1389892959150549 -0.0254713077033117 0.0707249461841811
O 0.7286453012009810 -0.4497948297741354 -0.5537400668450920 -0.3496602100029151
N 0.8347303929654151 0.0535927079100667 0.6261258028760225 0.9824851761690530
N 1.3917406624241877 -0.4539120752926961 0.8554227259392423 0.1071394941056757
O 0.8129842816781162 0.1827189067142982 -0.6041957474551385 -0.8194842575378962
N -0.4482582063955597 0.1297016267938079 0.5386217458830378 0.3116552922920345
N -1.1925698552773558 -0.1000967084635737 0.3240893467096284 0.0918298459672651
N -0.1377748634159882 -0.1087165834764261 -0.0787632204441999 0.5593901217632046
O -0.2248870486485770 -0.0272617424116203 -0.4127843171538007 -0.9963138680841535
N 1.1815635948643437 0.3871049214648546 0.6694747783082776 0.9989733053171830
O 1.2985663625567332 0.4710065694549259 -0.3580271586713686 -0.8354521971080898
N 0.7678133011899817 -0.4178426402547635 -0.1323684366400095 0.2899344186932475
O 1.0318571918793420 -0.3688816593646326 0.1467501468911815 -0.8678253524624289
N -0.0879714460777352 0.2742352740719753 0.3886250037922821 0.9219570073558310
O 0.0967272266242520 0.4649243255720739 0.3681188244033626 -0.9704818863270434
O 0.2025206495548421 -0.1612591679846608 0.1393779318388720 -0.3320651923316272
N 0.6434467511028509 0.2651558217734297 0.5783102967759185 0.9769593393400061
O -0.1166526908786683 0.6464544988459263 0.5685068753733434 -0.1970026432733326
O 0.2178058440687783 -0.1173672697170277 -0.6431420051786993 -0.1946060569702309
N -0.1743336169799086 0.1473484897327126 0.3015132122272400 0.1283355164991325
N -0.8722975743615347 0.8415768339046237 0.0665802367566871 0.1235072004109040
