25
s                      x[A]                      y[A]                      z[A]                      q[e]
N -2.0180347912907730 1.4005691134572187 -0.2543886208124554 0.1158659338886357
O -1.8586268934096393 -0.1432184081174904 0.4459592377959066 -0.2341991647481463
N -3.3456401977596375 -0.5663691536206589 0.0245344703132851 0.0569852111266852
N -2.1434234168321020 -0.4408557034419631 -0.0300543808855416 0.3189271149812888
O -1.8994052555665097 -0.2813887992244768 -0.3299127321566732 -0.2877498234141676
N -1.3590861434355448 -0.7920532109755005 0.2261451236370763 0.5692545008206258
O -0.7800790826036357 -0.6711590373199285 -0.4449489491953172 -0.2058946535748549
O -1.0643025251399021 -0.7234691175484071 0.2073786547788735 -0.9992971180892700
N -0.5594429728892653 -0.6379949980477149 0.0498285597418388 0.6691943173322236
N -0.8214506197850883 -2.0376434340549086 0.2410491697623163 0.0628076875181509
N 1.7205184012636159 -1.0746447111465431 -0.0626099403248399 0.7576134719858190
O 1.4538818409578624 -0.8542152411757349 -0.1231847324359041 -0.9235083265987739
N 1.1978906897080055 -0.5097992745794887 -0.0399786888382509 0.9955526175656415
O 1.5896640508351740 -0.9364706645916963 -0.0087190268272825 -0.9936641819349231
O 0.3511756306671984 0.1127611181884014 0.1335529734405835 -0.9934394819660318
N 0.6501260447537639 -0.1661472428110922 -0.0471168431111604 0.8475065253219278
N 0.1259628568338240 0.2710659709038130 0.0607354092984145 0.9207393412409772
O 0.3939632474394454 0.3324090599521962 -0.2234854223817093 -0.6738758902636315
N 2.0783322124566839 1.7300516612278938 -0.0568830403764235 0.1207489421105395
N 0.4351190708240129 0.9551285367757084 -0.0351302789278270 0.4308753055723465
O 0.8171007747663609 0.9544301710316828 0.2295350386303208 -0.7095764258838037
N 1.0466596098844179 0.9230688471981644 0.0068204127730932 0.9977500474782615
O 0.8699136225867936 1.0288220981148029 -0.1003952991994883 -0.9963537733476465
O 0.0512575490617624 2.2319760696294431 0.4786711354623169 -0.1586318904925156
N 0.0901001415804272 2.2044669716157164 0.3083728260546471 0.3123697133706422
