21
s                      x[A]                      y[A]                      z[A]                      q[e]
N -2.0955805565765924 1.5833836943443369 -0.2437413852792524 0.0690680479201058
O -1.8663495120270741 -0.2359768913454124 0.3611828080042955 -0.3117950550350966
N -1.9766465656355767 -0.3668572238760963 0.0184536637737794 0.5776243102962968
N -3.3157555260164875 -0.5688018927127357 0.0077113638425066 0.0604184539076988
O -1.8322305430204693 -0.3356444059001067 -0.3030154194312472 -0.3968494342195521
O -0.9231284677571540 -0.1471777215495009 0.1431311361032044 -0.9828651838991298
N -0.7609431263285292 -0.0011104883627003 0.1339665205746370 0.7759263489545838
N -0.9964829114511110 -1.3813836464745926 0.1624675304940733 0.9970342621901004
O -0.9951598279537531 -1.4159963089387895 -0.1161020466602622 -0.3970377457969525
O -1.0530889453572803 -1.3627851134704443 0.4303589649966650 -0.3893757401670396
N 1.7919098574612113 -1.2487263704703426 -0.1606654279916398 0.1691966627363242
O 1.4706903023757820 -0.9318503838239228 -0.0983542229246401 -0.6800109224217911
O 0.3619746449088567 0.4191044436184309 -0.3236552538801378 -0.9821368279659007
N 0.2136922519314242 0.4913535812976818 -0.1941975725626441 0.8921713087406896
O 0.5790038353189109 0.4819752815079473 0.3396386391577739 -0.3335771210350215
N 0.7824508153308067 -0.1150100945520568 -0.0828662517614804 0.9988617281482304
N 2.2720108340796039 1.7019580443901750 -0.0167839037499641 0.0655379221577991
N 1.0748609135182128 1.0923325549300040 0.0291629685462590 0.9908754307264420
O 0.9268092774741897 1.0888301017797679 -0.3174177730551786 -0.6595771554465193
O 1.0195872391936462 1.1190594592302341 0.3975168057023973 -0.5578053818499882
N -0.1778268703727086 2.2482671415475295 0.0798323842936993 0.0943160920587207
