21
s                      x[A]                      y[A]                      z[A]                      q[e]
N -0.0764183132199751 -0.5365796204835324 0.2922438261440023 0.0690680479201058
O -0.3548539770596175 0.3259384723400141 0.3995018402443878 -0.3117950550350966
N -0.4180476518878808 -0.0327441343119207 0.2807091008614002 0.5776243102962968
N 0.0029067675054277 0.0947416630224546 -0.4055690817946037 0.0604184539076988
O -0.2237282401692245 -0.3271929002103543 0.3074016005730156 -0.3968494342195521
O 0.3542416099666009 -0.0761734637391741 0.0903274381231933 -0.9828651838991298
N 0.4287109659178146 -0.0710112963562792 0.2956354477455058 0.7759263489545838
N -0.1309633859425334 -0.3488310181152237 -0.2903252404897568 0.9970342621901004
O -0.1496601550856378 -0.6191788787224444 -0.3635595313476253 -0.3970377457969525
O -0.1681431503918038 -0.0907604804168214 -0.2046909490411585 -0.3893757401670396
N 0.0667378329736701 0.0448783764356649 0.4806042050370771 0.1691966627363242
O 0.0506074493995950 0.0470018040733692 0.0254005346431031 -0.6800109224217911
O 0.1998552951259802 -0.3947608313598581 -0.3070261894532140 -0.9821368279659007
N 0.1350393024838731 -0.2903069359140871 -0.4768942795661987 0.8921713087406896
O 0.3587132460515383 0.2875270975734109 -0.2908851316178149 -0.3335771210350215
N 0.1186346637560314 -0.0723713573258328 0.3329160965312429 0.9988617281482304
N -0.0769578856290954 -0.0862595986265448 0.3560776447266477 0.0655379221577991
N 0.2504188106169479 0.0008752042059712 0.1366956125229371 0.9908754307264420
O 0.2656189523058484 0.3646337432503780 0.0392356436777746 -0.6595771554465193
O 0.1662924120095325 -0.3500586498606900 0.0406631442545002 -0.5578053818499882
N 0.1541732024015847 0.2559087980965100 -0.3133651646535702 0.0943160920587207
