21
s                      x[A]                      y[A]                      z[A]                      q[e]
N        1.9744485997127066        1.4265779413428541        0.1326890707347035        0.0707249461841811
O        1.6417282501486665       -0.0750099254640465       -0.2610876414151633       -0.3496602100029151
N        1.4833169987761807        0.1259364581652359        0.2227589396806274        0.9824851761690530
N        3.0386800855823353       -0.6898462740857798        0.0281450125135911        0.1071394941056757
O        1.5265453057434200        0.0069337842353533        0.3631870150271493       -0.8194842575378962
N        0.4860356695374444       -0.6508949609408032        0.0725639320990984        0.3116552922920345
N        0.7355224054768170       -2.0111951226610416       -0.1504893259696221        0.0918298459672651
N        1.2457621864522828       -1.0066647107950830       -0.0324179411115448        0.5593901217632046
O        0.9485286966159898       -0.8149047240350283       -0.0063632453393968       -0.9963138680841535
N       -0.7195120928138331        0.8862072480291108        0.0608262935326246        0.9989733053171830
O       -0.6907514174680145        0.9827832800486056        0.0758103017238087       -0.8354521971080898
N       -0.5061833838136897        1.7359163746563397       -0.0214138346463367        0.2899344186932475
O       -0.5173925875444497        1.3488365411979388       -0.0304474773905637       -0.8678253524624289
N       -0.5299316575627279       -0.4057920710598380        0.0495870998898234        0.9219570073558310
O       -0.6407596180206327       -0.2297192197979538        0.2156935406212102       -0.9704818863270434
O       -0.7945772220701527       -0.2470627789883326       -0.4412903219158855       -0.3320651923316272
N       -0.6021193485425542        0.3437430531620091       -0.0136781558040516        0.9769593393400061
O       -1.4878787404677258       -0.5408362764419439        0.5499893410114792       -0.1970026432733326
O       -1.5472909576662734       -0.5082122000935974       -0.4525283831971765       -0.1946060569702309
N       -2.7683252275593353        0.0191980435850863        0.1062463460061438        0.1283355164991325
N       -1.7236486144296492       -1.8937688793628431        0.0503082335816503        0.1235072004109040

        RMSE         3.891868473E-01 kcal/mol

Coordinates in bohr
s                   x[bohr]                   y[bohr]                   z[bohr]                      q[e]
+        3.7311671022507271        2.6958416057574364        0.2507460035300910        0.0707249461841811
-        3.1024167652080998       -0.1417482158180532       -0.4933841370163993       -0.3496602100029151
+        2.8030628849230461        0.2379854151424730        0.4209533879937660        0.9824851761690530
+        5.7422731446333684       -1.3036205266896397        0.0531863654482706        0.1071394941056757
-        2.8847525459583485        0.0131029532178347        0.6863239907238489       -0.8194842575378962
+        0.9184743026292961       -1.2300132126186885        0.1371259582536142        0.3116552922920345
+        1.3899359054891272       -3.8006079666859320       -0.2843836108873342        0.0918298459672651
+        2.3541493498463448       -1.9023206035659173       -0.0612610302520397        0.5593901217632046
-        1.7924594587416982       -1.5399467467679948       -0.0120247909605560       -0.9963138680841535
+       -1.3596807993731381        1.6746889891706960        0.1149450360033672        0.9989733053171830
-       -1.3053309997863338        1.8571912399709871        0.1432607077463220       -0.8354521971080898
+       -0.9565479646653765        3.2804065247981247       -0.0404662827774165        0.2899344186932475
-       -0.9777302898009732        2.5489316508739193       -0.0575373934792347       -0.8678253524624289
+       -1.0014256980034584       -0.7668358781854153        0.0937060381474863        0.9219570073558310
-       -1.2108601903119682       -0.4341064111719825        0.4076017188044002       -0.9704818863270434
-       -1.5015333352396740       -0.4668809880824655       -0.8339178502361440       -0.3320651923316272
+       -1.1378406635845126        0.6495802280048877       -0.0258479683709989        0.9769593393400061
-       -2.8116833273751491       -1.0220324411876736        1.0393292264327267       -0.1970026432733326
-       -2.9239561463866193       -0.9603818717932723       -0.8551547082388957       -0.1946060569702309
+       -5.2313765062828628        0.0362790445204157        0.2007764957822420        0.1283355164991325
+       -3.2572238177968948       -3.5787045269109585        0.0950687833248794        0.1235072004109040
