21
s                      x[A]                      y[A]                      z[A]                      q[e]
N 1.4978335165464847 -0.1325613907919831 0.0745913895657494 0.0707249461841811
O 0.5317076341059315 -0.2612726353109018 0.2513955514239220 -0.3496602100029151
N 0.7859872715871435 0.2225437595070628 0.2223326926357742 0.9824851761690530
N -0.7256922198260047 0.0280429481613979 0.0352377204237465 0.1071394941056757
O 0.6620493908326819 0.3629902278677845 0.1965536602579309 -0.8194842575378962
N -0.0533485111962516 -0.0724681511600301 -0.5959037117468150 0.3116552922920345
N 1.0362479044223882 -0.1503584352788008 -0.2220807493299202 0.0918298459672651
N -0.0525990820805293 -0.0324513530961461 -0.5752156490151749 0.5593901217632046
O 0.2667908723215901 -0.0064239515972308 -0.7272390635686030 -0.9963138680841535
N -1.2113864084079409 -0.0610715609826907 -0.3832356086349009 0.9989733053171830
O -1.1796870151346404 -0.0760604772891023 -0.2875846402000985 -0.8354521971080898
N -0.9722165011231650 0.0211191018486010 0.4595696043490440 0.2899344186932475
O -0.9952448266732953 0.0301888673622178 0.0730136756717353 -0.8678253524624289
N -0.1430578604100128 -0.0496759138427487 0.3551153271084687 0.9219570073558310
O -0.3498441371074183 -0.2158171082388409 0.3324796314606166 -0.9704818863270434
O -0.4016289437168642 0.4411441261340552 0.1865045639636307 -0.3320651923316272
N -0.8486781535406765 0.0135045507646098 0.6180310713374222 0.9769593393400061
O -0.2138038206105798 0.5500278467293878 0.6517530937965476 -0.1970026432733326
O -0.2147111442326033 -0.4525005370681855 0.5841369292602261 -0.1946060569702309
N -0.4522749625942213 -0.1061644357584369 0.4001271315981757 0.1283355164991325
N -0.9623444886124882 0.0507008653783737 0.0984103307969258 0.1235072004109040
