25
s                      x[A]                      y[A]                      z[A]                      q[e]
N -1.8874263445200545 1.2243028857487663 -0.8975136638438117 0.1158659338886357
O -1.8746949856582522 0.0658271858783677 0.3708493779862941 -0.2341991647481463
N -3.3608309338891953 -0.4142403462583344 0.0372955781580362 0.0569852111266852
N -2.1507765968692625 -0.3724596872504330 0.0113331652242127 0.3189271149812888
O -1.8646965983392354 -0.3501915104762691 -0.2988938760327013 -0.2877498234141676
N -1.3726046307161597 -0.6785321315161326 0.4815484922727885 0.5692545008206258
O -0.8733596871069549 -0.5838108429004777 -0.2568770169315881 -0.2058946535748549
O -1.0726877850568655 -0.6421246563500894 0.4280749339635413 -0.9992971180892700
N -0.5922874774866782 -0.5735444358920261 0.2041748492059351 0.6691943173322236
N -0.9206387878199529 -1.7852156551219502 0.9700591249272952 0.0628076875181509
N 1.6363284165198391 -1.1436568518498262 -0.2189564319959812 0.7576134719858190
O 1.3757325276166317 -0.9083807287619663 -0.2403015995747453 -0.9235083265987739
N 1.1543324350946178 -0.5524914011392845 -0.1146089465473964 0.9955526175656415
O 1.5209384817681815 -1.0018233103427778 -0.1461306693425058 -0.9936641819349231
O 0.3725909299199742 0.1108203021535777 0.1817650246189847 -0.9934394819660318
N 0.6287870351222258 -0.1785967906050409 -0.0412338684081297 0.8475065253219278
N 0.1469135517174102 0.2836085509290522 0.1457366941400360 0.9207393412409772
O 0.3808069651503668 0.3395497169424573 -0.1745537682865705 -0.6738758902636315
N 2.1424936436234416 1.6551227752252273 -0.1373092176283607 0.1207489421105395
N 0.4774923009309819 0.9504968504266951 0.0604603324689186 0.4308753055723465
O 0.8927253334564091 0.9179407934180264 0.2675111935669250 -0.7095764258838037
N 1.0892404633616364 0.8899810953652361 0.0159363749959502 0.9977500474782615
O 0.9049565274654024 1.0135408283550946 -0.0626419893865617 -0.9963537733476465
O 0.2276880482928078 2.2011467684283854 0.7028815762185630 -0.1586318904925156
N 0.2392951409122427 2.1819632328722913 0.5266532800013640 0.3123697133706422
