25
s                      x[A]                      y[A]                      z[A]                      q[e]
N 0.0811209641786292 -0.0105202211365405 0.2408427632911688 0.1158659338886357
O -0.1695255796794690 0.4581138635272906 0.2929724615787567 -0.2341991647481463
N -0.0796618621395192 -0.0065563230794253 -0.3907255555265913 0.0569852111266852
N -0.5178002497234089 -0.0379407462449811 0.1692814701189845 0.3189271149812888
O -0.2257052235600592 -0.3413227122828225 0.2458691764407794 -0.2877498234141676
N -0.0018879832017049 0.1182496637451838 -0.5487628179130773 0.5692545008206258
O -0.1480589295240190 -0.4807591412873407 0.0481669368219243 -0.2058946535748549
O -0.0400854483053735 0.1561126324476971 -0.2541890676777007 -0.9992971180892700
N -0.1911574458482181 -0.0205181324066500 0.2401698853703074 0.6691943173322236
N 0.0211159232927721 -0.0356122547040858 0.4175050935720899 0.0628076875181509
N 0.0590916969436327 0.0089854149565351 0.2639386197313905 0.7576134719858190
O 0.0222678387592879 -0.0743502831326868 -0.0750598760299011 -0.9235083265987739
N 0.0976687375006812 -0.0068334085698385 -0.5072032896437425 0.9955526175656415
O 0.0527569769312701 0.0438089116150837 0.0685288738781138 -0.9936641819349231
O -0.0465053467474606 0.1110750293798081 -0.1236624158671215 -0.9934394819660318
N -0.0354582123004633 -0.0521613406472204 0.2789488569876252 0.8475065253219278
N -0.0850415203865437 0.0151807419388702 -0.3955604490687037 0.9207393412409772
O 0.1539107873217911 -0.2399670708164706 -0.2243481146131311 -0.6738758902636315
N -0.0668212195299797 0.0195214873330228 0.2139093399608272 0.1207489421105395
N 0.2696986537959764 0.0782948214623489 -0.4900003392704978 0.4308753055723465
O 0.3548544407297019 -0.2032360458718831 -0.1313831077607951 -0.7095764258838037
N 0.4525238338979674 -0.0077846058405219 0.0820057681395293 0.9977500474782615
O 0.3143381803431566 0.1180369228486793 -0.0428488547665569 -0.9963537733476465
O -0.0241670470439854 -0.3644017543440790 -0.1376070585272588 -0.1586318904925156
N -0.0383447866064860 -0.1972302584933712 -0.0762309021727879 0.3123697133706422
