21
s                      x[A]                      y[A]                      z[A]                      q[e]
N        1.8180464102780287        1.2499082374663095        0.9909107934954976        0.0707249461841811
O        1.6677402139803199        0.0841776209883585       -0.0897240114884453       -0.3496602100029151
N        1.4264788354425946        0.0548625295663175        0.3994243382286420        0.9824851761690530
N        3.0615527459395162       -0.5550594983823559        0.0912396578535174        0.1071394941056757
O        1.4564394999394765       -0.1133150515857143        0.4809778604451086       -0.8194842575378962
N        0.5623835805610042       -0.5531881496296283       -0.1424474157189426        0.3116552922920345
N        0.9226624748480821       -1.7144118166339568       -0.9647257661765585        0.0918298459672651
N        1.3369325376532979       -0.8268753383515194       -0.3419278223337527        0.5593901217632046
O        1.0247749155524906       -0.6681961911412310       -0.2784674944443634       -0.9963138680841535
N       -0.7971883325717112        0.8574284369074026       -0.0021935117249630        0.9989733053171830
O       -0.7778856579760015        0.9561608955861980        0.0087644099618397       -0.8354521971080898
N       -0.6793059461207052        1.7224349745165282       -0.1116405352003009        0.2899344186932475
O       -0.6553100521669646        1.3355583394114476       -0.1187386303008812       -0.8678253524624289
N       -0.4862312487238110       -0.4138381085110414       -0.0352464219990809        0.9219570073558310
O       -0.5937460255242515       -0.2473535733279590        0.1428413140483002       -0.9704818863270434
O       -0.8257725828985605       -0.2882230262187153       -0.4894958733656796       -0.3320651923316272
N       -0.6378389822909909        0.3243054223647536       -0.0899782147482248        0.9769593393400061
O       -1.3017093618336548       -0.6150422898936854        0.6671565396239779       -0.1970026432733326
O       -1.5497282140384601       -0.6277475724852000       -0.3064651442656744       -0.1946060569702309
N       -2.6911909449393852       -0.1953068988912153        0.4623409000422636        0.1283355164991325
N       -1.4896605980117603       -2.0028234590962586        0.2501739461235756        0.1235072004109040

        RMSE         5.443594237E-01 kcal/mol

Coordinates in bohr
s                   x[bohr]                   y[bohr]                   z[bohr]                      q[e]
+        3.4356097987972123        2.3619842507650319        1.8725500144665888        0.0707249461841811
-        3.1515722528352392        0.1590726495605882       -0.1695538085905933       -0.3496602100029151
+        2.6956543227485290        0.1036751554301727        0.7548026070943687        0.9824851761690530
+        5.7854962084690564       -1.0489104352766552        0.1724179651236254        0.1071394941056757
-        2.7522717731843636       -0.2141344133891259        0.9089164286499311       -0.8194842575378962
+        1.0627509447146468       -1.0453740986487827       -0.2691866029880379        0.3116552922920345
+        1.7435793836999969       -3.2397687996868036       -1.8230674842461625        0.0918298459672651
+        2.5264363443780686       -1.5625679293796475       -0.6461499388849951        0.5593901217632046
-        1.9365439306333811       -1.2627077993309967       -0.5262272993422962       -0.9963138680841535
+       -1.5064676189709263        1.6203049179343878       -0.0041451364131606        0.9989733053171830
-       -1.4699908504962027        1.8068822245303928        0.0165623344791113       -0.8354521971080898
+       -1.2837021935631443        3.2549303707461719       -0.2109700360281029        0.2899344186932475
-       -1.2383565258550453        2.5238394860588858       -0.2243834917806537       -0.8678253524624289
+       -0.9188438937273689       -0.7820406853633666       -0.0666060844805747        0.9219570073558310
-       -1.1220173763199286       -0.4674305097431927        0.2699309629517991       -0.9704818863270434
-       -1.5604840235902000       -0.5446625826040228       -0.9250131402029214       -0.3320651923316272
+       -1.2053409886707185        0.6128484292703102       -0.1700341831317752        0.9769593393400061
-       -2.4598741888100948       -1.1622614834735043        1.2607431426974718       -0.1970026432733326
-       -2.9285618934275788       -1.1862709879180140       -0.5791351896610473       -0.1946060569702309
+       -5.0856138372474957       -0.3690765493168802        0.8736976776775518        0.1283355164991325
+       -2.8150505501279550       -3.7847878153340178        0.4727602418986001        0.1235072004109040
