21
s                      x[A]                      y[A]                      z[A]                      q[e]
N 1.8178269541095124 1.2499033860847966 0.9910033703336595 0.0707249461841811
O 1.6684342395708194 0.0844105966948100 -0.0899585596663925 -0.3496602100029151
N 1.4258167560059429 0.0546713351016380 0.3996785275698327 0.9824851761690530
N 3.0613455096108217 -0.5551984702742960 0.0913477485952652 0.1071394941056757
O 1.4571894813429962 -0.1131482506713539 0.4809414816789609 -0.8194842575378962
N 0.5616427737657232 -0.5534114553288338 -0.1423875945512607 0.3116552922920345
N 0.9223330444308373 -1.7145441943626758 -0.9646557893167684 0.0918298459672651
N 1.3362498092796322 -0.8271971708218780 -0.3417750912637542 0.5593901217632046
O 1.0256526154993308 -0.6680180369877120 -0.2786303812957949 -0.9963138680841535
N -0.7981334902402362 0.8573190792995835 -0.0022591607998126 0.9989733053171830
O -0.7771912802837385 0.9563829551266544 0.0089094599902656 -0.8354521971080898
N -0.6799543996577595 1.7223600083712034 -0.1116671224590837 0.2899344186932475
O -0.6546309866475530 1.3358490557692886 -0.1186833652008145 -0.8678253524624289
N -0.4871737223166273 -0.4140703176792270 -0.0353668164819145 0.9219570073558310
O -0.5929314874691959 -0.2472383407074327 0.1430584196676410 -0.9704818863270434
O -0.8249408231594435 -0.2880905190899815 -0.4893688753617399 -0.3320651923316272
N -0.6388068905500366 0.3241379693705964 -0.0900948396296601 0.9769593393400061
O -1.3012480543917615 -0.6149739462566760 0.6673864195643486 -0.1970026432733326
O -1.5491555279452291 -0.6276632725142155 -0.3062287965415824 -0.1946060569702309
N -2.6915102838044009 -0.1952964732612722 0.4621083753914206 0.1283355164991325
N -1.4899665649913980 -2.0029028022171742 0.2499887570709921 0.1235072004109040
