25
s                      x[A]                      y[A]                      z[A]                      q[e]
N        1.7187153213918331        0.8675832687659951       -1.2783496990673089        0.1158659338886357
O        1.7267589728655213       -0.5564683791262010       -0.3384475749189784       -0.2341991647481463
N        3.3365384285058295       -0.4109382059096452       -0.0864343833269458        0.0569852111266852
N        2.1353537838588483       -0.3221596438888774        0.0390900926722246        0.3189271149812888
O        1.8838954069308289       -0.0032640828865481        0.1812875324682490       -0.2877498234141676
N        1.3573462048340901       -0.6438286356858933        0.6109936840504786        0.5692545008206258
O        0.9822369745963049       -0.3062851854923768       -0.0808882843876334       -0.2058946535748549
O        1.1064982380355761       -0.4602841969478442        0.5622031928484171       -0.9992971180892700
N        0.6957384647631732       -0.2306291768455983        0.3344777720215919        0.6691943173322236
N        1.0571085437143768       -1.4633000895369948        1.4794031723434862        0.0628076875181509
N       -0.7711174379104485        1.5409177691097646        0.1145887927205630        0.7576134719858190
O       -0.6896507636224005        1.2281331169795513        0.0542806676757801       -0.9235083265987739
N       -0.7083370651026483        0.8034077084086757        0.0827488783822349        0.9955526175656415
O       -0.7570191254876487        1.3569154014924398        0.1540325728779575       -0.9936641819349231
O       -0.4670114422082386       -0.1906914641486309        0.2180861418945457       -0.9934394819660318
N       -0.4975750158059579        0.2072066155527955        0.0629115103320753        0.8475065253219278
N       -0.3743764594424133       -0.4562055670799895        0.1425914621744249        0.9207393412409772
O       -0.5775600228805159       -0.3178696453873069       -0.1557657416334390       -0.6738758902636315
N       -2.7227087240739816       -0.4055820687211852       -0.5283151341379980        0.1207489421105395
N       -0.9803098152906078       -0.7898628743615056       -0.1526135679340304        0.4308753055723465
O       -1.3358995710365886       -0.5938429766068856        0.0426270359466919       -0.7095764258838037
N       -1.4417829159884679       -0.4073570327928336       -0.1669182838968829        0.9977500474782615
O       -1.3424112032238289       -0.5774756182783087       -0.2800539662466298       -0.9963537733476465
O       -1.5282459191233631       -2.0777103951811258        0.0490553388004552       -0.1586318904925156
N       -1.4883992339547516       -2.0214377394715499       -0.1019178589459940        0.3123697133706422

        RMSE         4.818032803E-01 kcal/mol

Coordinates in bohr
s                   x[bohr]                   y[bohr]                   z[bohr]                      q[e]
+        3.2479012450587947        1.6394947689972015       -2.4157308237986461        0.1158659338886357
-        3.2631015433927004       -1.0515728340259536       -0.6395732244222390       -0.2341991647481463
+        6.3051438369414718       -0.7765606636562250       -0.1633373123107659        0.0569852111266852
+        4.0352338324532937       -0.6087934956250020        0.0738695693692703        0.3189271149812888
-        3.5600463681071939       -0.0061682227063697        0.3425837863250343       -0.2877498234141676
+        2.5650125845660128       -1.2166597931735028        1.1546107272399153        0.5692545008206258
-        1.8561588722852944       -0.5787951168656414       -0.1528567042507734       -0.2058946535748549
-        2.0909786281888829       -0.8698110721077175        1.0624100613414595       -0.9992971180892700
+        1.3147551533488890       -0.4358259807779608        0.6320713841741297        0.6691943173322236
+        1.9976456325017364       -2.7652364085828380        2.7956668248626757        0.0628076875181509
+       -1.4572007682154793        2.9119125654689157        0.2165414352887197        0.7576134719858190
-       -1.3032510654591913        2.3208352366962131        0.1025755958142159       -0.9235083265987739
+       -1.3385630575545968        1.5182205359740792        0.1563727173312417        0.9955526175656415
-       -1.4305588189052478        2.5641984842363614        0.2910793771389633       -0.9936641819349231
-       -0.8825237232286471       -0.3603546417034726        0.4121230799384260       -0.9934394819660318
+       -0.9402805067436104        0.3915637547778140        0.1188855246665329        0.8475065253219278
+       -0.7074689761647315       -0.8621035786903599        0.2694588113382424        0.9207393412409772
-       -1.0914302642573319       -0.6006865733784092       -0.2943545914160237       -0.6738758902636315
+       -5.1451738078945519       -0.7664390312796558       -0.9983709114553317        0.1207489421105395
+       -1.8525170689973995       -1.4926245092101513       -0.2883978464242704        0.4308753055723465
-       -2.5244843203757474       -1.1222005873136736        0.0805534234792936       -0.7095764258838037
+       -2.7245748435821766       -0.7697932272575989       -0.3154298418965263        0.9977500474782615
-       -2.5367895218393475       -1.0912707626754321       -0.5292252965543411       -0.9963537733476465
-       -2.8879662394917305       -3.9263036149090822        0.0927011553244053       -0.1586318904925156
+       -2.8126669175157124       -3.8199637072658024       -0.1925968407009706        0.3123697133706422
