25
s                      x[A]                      y[A]                      z[A]                      q[e]
N 0.0628248492168542 -0.0215113777471348 0.2384269412532003 0.1158659338886357
O -0.1835052227919302 0.4349186861462835 0.3232516452006660 -0.2341991647481463
N -0.0940287745472288 -0.0017241835933530 -0.3919349483407179 0.0569852111266852
N -0.4947401002785858 -0.0375533790194302 0.1308724050507536 0.3189271149812888
O -0.2250339490838820 -0.3357913147142031 0.2820601996851890 -0.2877498234141676
N 0.0296707334976878 0.1234507549088830 -0.5369452154181789 0.5692545008206258
O -0.1497682707808968 -0.4856157852129060 0.0394295981705076 -0.2058946535748549
O -0.0856666885691287 0.1346283246316800 -0.2463732812738692 -0.9992971180892700
N -0.1851414190032701 -0.0212529269761056 0.2509050322914108 0.6691943173322236
N 0.0260488090377810 -0.0424882448368760 0.3896472721503835 0.0628076875181509
N 0.0338624523825613 0.0020771022536885 0.2426951937091441 0.7576134719858190
O 0.0108514097509877 -0.0630772808837335 -0.0836600921690351 -0.9235083265987739
N 0.0807026572602082 -0.0151186176973371 -0.4989739617564306 0.9955526175656415
O 0.0388473769250151 0.0464994732640800 0.0564446440154314 -0.9936641819349231
O -0.0517039271992269 0.1051865333991270 -0.1087176211755066 -0.9934394819660318
N -0.0408147483662251 -0.0566549871997594 0.2939293181406484 0.8475065253219278
N -0.0881716698297224 0.0180767124944319 -0.3861331141477160 0.9207393412409772
O 0.1496917757464063 -0.2395684367790883 -0.2198650968320589 -0.6738758902636315
N -0.0680791400316695 0.0207149035795130 0.2141126773041985 0.1207489421105395
N 0.2758138485441680 0.0699310854950604 -0.4930614009234309 0.4308753055723465
O 0.3598935936341073 -0.1969207243059245 -0.1369147073807377 -0.7095764258838037
N 0.4561907282279200 -0.0060018741706664 0.0789027200570158 0.9977500474782615
O 0.3184638474565269 0.1181997006471211 -0.0569093053850775 -0.9963537733476465
O -0.0291303506948108 -0.3578376390571688 -0.1205596569705385 -0.1586318904925156
N -0.0207535008122713 -0.1973407082587416 -0.0785697257551763 0.3123697133706422
