21
s                      x[A]                      y[A]                      z[A]                      q[e]
N -1.9373833701541492 1.3389527945589785 0.7952143173893924 0.0690680479201058
O -1.7319758590803602 -0.5188661409848045 0.3590508138049168 -0.3117950550350966
N -1.9182733607454483 -0.4724894242355953 0.0280319277474655 0.5776243102962968
N -3.2582999029109474 -0.6624872745356729 0.1106878881455269 0.0604184539076988
O -1.8387171144746466 -0.2905551440320129 -0.2644619065601026 -0.3968494342195521
O -0.5922783695439585 -0.9208602552602454 -0.2936957045216049 -0.9828651838991298
N -0.3718958740036514 -0.9171412490435146 -0.2656441080962563 0.7759263489545838
N -0.9954855175775718 -1.3933891397321960 -0.5306137198052334 0.9970342621901004
O -1.0489390470176512 -1.2967882271610605 -0.7886957477845306 -0.3970377457969525
O -0.9924708233997144 -1.5115470794912498 -0.2832518821559306 -0.3893757401670396
N 0.6039379849255422 1.7787035488883809 -0.0038301783427568 0.1691966627363242
O 0.5850310329813614 1.3311779664455388 -0.0482087950947506 -0.6800109224217911
O 0.6598456540693609 -0.3978540802262072 0.2608969055964665 -0.9821368279659007
N 0.6156284744157611 -0.5674600695124001 0.1340174800770466 0.8921713087406896
O 0.9200633090086958 -0.3294511868537611 -0.3864086368773239 -0.3335771210350215
N 0.6346285179288025 0.2572917030547582 -0.0124673937983957 0.9988617281482304
N 2.9154922441156628 -0.0800876211292816 0.4187026187748932 0.0655379221577991
N 1.6487550686312664 -0.4392279337132062 0.1548989296365481 0.9908754307264420
O 1.4655871199583494 -0.4988694121855877 0.4788865129042151 -0.6595771554465193
O 1.6897010561709176 -0.5162111700732103 -0.2072821000508630 -0.5578053818499882
N 1.4762343336489641 -2.1306762853655918 0.2063195989237005 0.0943160920587207
