25
s                      x[A]                      y[A]                      z[A]                      q[e]
N 1.6781121348604942 0.5563600667740317 -1.5107372606011726 0.1158659338886357
O 1.7746930463989314 -0.5663897957159407 -0.2398986517375359 -0.2341991647481463
N 3.3512176240955300 -0.2919907630510720 -0.0256315419687977 0.0569852111266852
N 2.1522571179085417 -0.2340830587786412 0.0944423513493420 0.3189271149812888
O 1.8986778741338162 0.1123784465081614 0.1303907867047143 -0.2877498234141676
N 1.3989187095317317 -0.4899255821180144 0.6956171088574301 0.5692545008206258
O 1.0164038262089499 -0.1679269089946979 -0.0243259513566942 -0.2058946535748549
O 1.1396166743194145 -0.3310705340575741 0.6881979357014638 -0.9992971180892700
N 0.7089930814299810 -0.1234713968283587 0.3928144052224219 0.6691943173322236
N 1.1285088925862736 -0.9903250285261297 1.7566793597169021 0.0628076875181509
N -0.9290679579914448 1.5759723231552889 0.0506533678448382 0.7576134719858190
O -0.8109937370796639 1.2382489095611080 -0.0125830571969549 -0.9235083265987739
N -0.8058526279020717 0.8122298148293035 0.0425636579433574 0.9955526175656415
O -0.9071138784235445 1.3770314872525673 0.0985001644413683 -0.9936641819349231
O -0.4651717597973570 -0.2007028465550218 0.2275267232807950 -0.9934394819660318
N -0.5297835561092514 0.2118756862654782 0.0498845104732826 0.8475065253219278
N -0.3480773799992214 -0.4637998990935125 0.1496420350239594 0.9207393412409772
O -0.5381469510008452 -0.3316215506569531 -0.1806325004258880 -0.6738758902636315
N -2.6807024951538594 -0.5888264295431929 -0.5432493905588115 0.1207489421105395
N -0.9227383079329776 -0.8441218411332647 -0.1357810377308700 0.4308753055723465
O -1.3061345963665092 -0.6608067599271296 0.0686913184390556 -0.7095764258838037
N -1.4356196853125069 -0.4841215234953631 -0.1684825489830848 0.9977500474782615
O -1.3145577043097374 -0.6563549269498157 -0.2841293725370631 -0.9963537733476465
O -1.3726562331918837 -2.1685689344977899 0.1337124116942656 -0.1586318904925156
N -1.3336721168409185 -2.1146631880605380 -0.0281526560457622 0.3123697133706422
