21
s                      x[A]                      y[A]                      z[A]                      q[e]
N 0.0261082304133036 -0.0471686642043013 0.3768058981702925 0.0707249461841811
O 0.1081574879055665 0.2841354679326522 0.3129846155528096 -0.3496602100029151
N 0.3690747755311758 -0.1728694355299757 0.3151264328104531 0.9824851761690530
N 0.0347081378413376 -0.0144529508626275 -0.1892639515658789 0.1071394941056757
O 0.2623258954682480 -0.3361117613348323 0.3202976094697891 -0.8194842575378962
N 0.0935322844219716 0.1221655937885882 0.2875132823126024 0.3116552922920345
N 0.0290717476230108 -0.0131766264985393 0.2449657102646058 0.0918298459672651
N 0.0812665208826909 0.0351399743554694 -0.5529223257911499 0.5593901217632046
O 0.0566029335240520 0.0638433263740209 -0.1939876726755826 -0.9963138680841535
N 0.2186019309863142 0.0808419713067299 -0.4231984742990557 0.9989733053171830
O 0.2055702726384292 0.1025039020364836 -0.3339757120932216 -0.8354521971080898
N 0.0294355544485811 0.0046099952971142 0.4300250387175251 0.2899344186932475
O 0.0402799743055683 0.0003550824170660 0.0367185310317729 -0.8678253524624289
N -0.0053986365215968 0.0742938037160763 -0.3451915147997463 0.9219570073558310
O 0.1256852766052553 0.2452922884707477 -0.1835117614500328 -0.9704818863270434
O 0.2630037996873166 -0.4156277821652951 -0.2036119015225435 -0.3320651923316272
N 0.0848606801744490 0.0095153554567477 0.4005220849293641 0.9769593393400061
O 0.1967939338450297 -0.5160284221865634 -0.0956358914554448 -0.1970026432733326
O 0.2277008037268014 0.4884514505539220 -0.0738133558021980 -0.1946060569702309
N 0.0230252326025104 0.0002193848999308 0.1839802044409426 0.1283355164991325
N 0.0375596265407481 0.0054483505760870 -0.1474715558148073 0.1235072004109040
