21
s                      x[A]                      y[A]                      z[A]                      q[e]
N        1.8210978278972201        1.0808158045231442       -1.3632152461712581        0.0707249461841811
O        1.6276409570952715       -0.1071753499968359       -0.3640975598725652       -0.3496602100029151
N        1.5197131640498522        0.3739106379292131       -0.1801308132537308        0.9824851761690530
N        3.1318877437021806       -0.2669105771231662        0.0786281219291481        0.1071394941056757
O        1.5945768581522501        0.4214439399030075       -0.0063316938493995       -0.8194842575378962
N        0.6804449783502469       -0.1662650203871721        0.2062478863073820        0.3116552922920345
N        0.9972275985139717       -1.2749228882897363        1.3191956501168394        0.0918298459672651
N        1.4475935535263487       -0.3995504952906565        0.4729253498583469        0.5593901217632046
O        1.1108630295817183       -0.3292726687510591        0.3636557680593132       -0.9963138680841535
N       -1.1706342247830113       -0.5827736177076804       -0.2393118453384628        0.9989733053171830
O       -1.2056637008956261       -0.6607207757777014       -0.2753249125496621       -0.8354521971080898
N       -1.5232599561695357       -1.3838228989440575       -0.2989837645124229        0.2899344186932475
O       -1.3100744852422457       -1.0623855729038330       -0.2211652890246950       -0.8678253524624289
N       -0.2649310824259506        0.3177961719618807        0.0501478184755021        0.9219570073558310
O       -0.4184487256788106        0.2765941001459416       -0.1673344548260885       -0.9704818863270434
O       -0.6750195934668611        0.3341408754180715        0.4547069349866720       -0.3320651923316272
N       -0.7740575500530786       -0.2301671623398532       -0.0444998896463570        0.9769593393400061
O       -0.8564695832344622        1.0995243426843824       -0.4206777708018827       -0.1970026432733326
O       -1.1105441938150911        0.9421329101329510        0.5390541196897678       -0.1946060569702309
N       -2.2806344586954528        1.3623085349122159       -0.1889233661818637        0.1283355164991325
N       -0.3509501717486298        2.2017855329926546        0.3872472592820116        0.1235072004109040

        RMSE         6.526345712E-01 kcal/mol

Coordinates in bohr
s                   x[bohr]                   y[bohr]                   z[bohr]                      q[e]
+        3.4413761423918805        2.0424458626151067       -2.5761034653122512        0.0707249461841811
-        3.0757956394881183       -0.2025320588941074       -0.6880446711066323       -0.3496602100029151
+        2.8718416693071842        0.7065887010814367       -0.3403979038055403        0.9824851761690530
+        5.9184100912751809       -0.5043878907506737        0.1485856162051947        0.1071394941056757
-        3.0133135479007684        0.7964136236505921       -0.0119651672856109       -0.8194842575378962
+        1.2858546525250478       -0.3141953527754175        0.3897520190755157        0.3116552922920345
+        1.8844870459394223       -2.4092550899452667        2.4929184846161156        0.0918298459672651
+        2.7355553571430762       -0.7550410093903686        0.8936993890186017        0.5593901217632046
-        2.0992268888058052       -0.6222351645380978        0.6872098055751166       -0.9963138680841535
+       -2.2121780779275282       -1.1012825306097764       -0.4522338462676163        0.9989733053171830
-       -2.2783741940986375       -1.2485813116198861       -0.5202886802344884       -0.8354521971080898
+       -2.8785441350373180       -2.6150462851413736       -0.5649974308868566        0.2899344186932475
-       -2.4756819810579875       -2.0076177724258555       -0.4179418247143976       -0.8678253524624289
+       -0.5006471879061402        0.6005477287268545        0.0947656427078731        0.9219570073558310
-       -0.7907534890797844        0.5226870971932848       -0.3162162909741022       -0.9704818863270434
-       -1.2756021609702497        0.6314347418608791        0.8592715744711682       -0.3320651923316272
+       -1.4627567749431831       -0.4349528998961137       -0.0840926040447111        0.9769593393400061
-       -1.6184929470981411        2.0777998759475231       -0.7949657738836781       -0.1970026432733326
-       -2.0986243765278796        1.7803731739318496        1.0186646530134253       -0.1946060569702309
+       -4.3097745192161696        2.5743900293577924       -0.3570134207833038        0.1283355164991325
+       -0.6631997082872976        4.1607716443513079        0.7317912628771588        0.1235072004109040
