21
s                      x[A]                      y[A]                      z[A]                      q[e]
N -0.0399817894018304 -0.0000818991387525 0.3950530260589200 0.0690680479201058
O -0.2712474932924781 0.3564258441605190 0.3351173218061028 -0.3117950550350966
N -0.4048101647482216 0.0032141429766539 0.2732015011282593 0.5776243102962968
N -0.0244383083091102 0.0147220034352123 -0.3956566251019313 0.0604184539076988
O -0.2779214591847636 -0.3156749888679753 0.3580006740820560 -0.3968494342195521
O 0.3709404203483359 0.0730519967012910 0.0937560117777333 -0.9828651838991298
N 0.4510635652640257 0.0696046105902415 0.3009698254766393 0.7759263489545838
N -0.1358961793649255 -0.0053627952054938 -0.2486967371356066 0.9970342621901004
O -0.1381448307132291 -0.2860032803578528 -0.2431100614114829 -0.3970377457969525
O -0.1817900250741355 0.2641379900330725 -0.2281699859034794 -0.3893757401670396
N 0.0392125990855194 -0.1002295827217876 0.4777818118781569 0.1691966627363242
O 0.0282369044001282 -0.0552479361692055 0.0300516844609407 -0.6800109224217911
O 0.1861148819605439 -0.3426374537796056 -0.3333589508915886 -0.9821368279659007
N 0.1329190116427200 -0.2203231535020488 -0.5037383819481156 0.8921713087406896
O 0.3707447875054204 0.3290765736492030 -0.2552006985122233 -0.3335771210350215
N 0.1120433216509163 -0.0781225980264658 0.3217175610738443 0.9988617281482304
N -0.0513789229660973 -0.0128218488680414 0.3718735540004606 0.0655379221577991
N 0.2535036378868449 -0.0202876816109900 0.1456341305718188 0.9908754307264420
O 0.2444981009495382 0.3324474744247511 0.0130733238152531 -0.6595771554465193
O 0.2133589166683989 -0.3854526004665050 0.0838192922477628 -0.5578053818499882
N 0.1435363065154174 0.0093953107531344 -0.3208616397237318 0.0943160920587207
