21
s                      x[A]                      y[A]                      z[A]                      q[e]
N 0.0487645485798576 0.0715487495306422 0.2130077073696638 0.0690680479201058
O 0.7361930536092494 -0.4654294288070484 -0.1980363353119822 -0.3117950550350966
N 0.7519065913229631 -0.1289145778173668 -0.0101544757209374 0.5776243102962968
N 1.5524436009399267 -0.2422450031177117 1.0778822751696218 0.0604184539076988
O 0.7391827097925308 0.2038317726425908 -0.1354377973914432 -0.3968494342195521
O 0.1895785462487269 -0.0920090162075594 0.4454006663322806 -0.9828651838991298
N 0.1307233533950181 -0.0681335647179636 0.2498179419797386 0.7759263489545838
N -0.6800991880698904 -0.0695711164732759 0.0093809069065839 0.9970342621901004
O -0.6239674459877441 0.2086357913556807 0.0383922948834514 -0.3970377457969525
O -0.6243342725553210 -0.3441803508222934 0.0279087205917155 -0.3893757401670396
N -0.9750587368741921 0.3626228640135916 -0.4617458757949794 0.1691966627363242
O -0.0923172584915395 0.2262657419162916 -0.6846518111452181 -0.6800109224217911
O -0.2920416788970666 0.4626629416152469 -0.8449951132643122 -0.9821368279659007
N -0.2053703310452025 0.3317480165117507 -0.7640075349068095 0.8921713087406896
O 0.8505905702270427 -0.1828887320088857 0.6777852527410008 -0.3335771210350215
N 0.3219348927110591 0.2177770921066955 0.2141883398644818 0.9988617281482304
N -0.1849166471657051 0.5946257348776939 0.4286666301542212 0.0655379221577991
N 0.9733819867293352 0.3658281695992422 -0.2407833457941622 0.9908754307264420
O 1.1101116096147643 0.0480229295289053 -0.0751574266222894 -0.6595771554465193
O 1.0657911691368274 0.7418410834756270 -0.2444270326401489 -0.5578053818499882
N -0.1458529765919347 -0.2084751180283024 -0.0340255657107449 0.0943160920587207
