25
s                      x[A]                      y[A]                      z[A]                      q[e]
N -1.7008041955239550 0.2976003479430763 -1.6355850632094566 0.1158659338886357
O -1.8470631375570150 0.5038084794067073 0.0562588038215238 -0.2341991647481463
N -3.3779213552101739 0.0239771300467982 0.0478183068062825 0.0569852111266852
N -2.1733224387429071 -0.0212715096633014 0.1254938002303230 0.3189271149812888
O -1.8736591413265073 -0.2724807962947042 -0.0469615403926373 -0.2877498234141676
N -1.4224630605194468 0.0316631234255277 0.7942428213926657 0.5692545008206258
O -1.0258162697645841 -0.1217498020790478 0.0116700886424593 -0.2058946535748549
O -1.1337923730733039 -0.0611639430842379 0.7254468354188198 -0.9992971180892700
N -0.6967522911258068 -0.1565561133799703 0.4233196556213004 0.6691943173322236
N -1.1424635933842917 -0.2499858815937948 1.9411644207741279 0.0628076875181509
N 1.1790616629372941 -1.4687378924617021 -0.1647250955780017 0.7576134719858190
O 1.0058232640104288 -1.1621452050515866 -0.1841765932590149 -0.9235083265987739
N 0.9254215524717793 -0.7461721122074033 -0.0845441135548479 0.9955526175656415
O 1.1275989384887897 -1.2905627427348934 -0.0941807648200846 -0.9936641819349231
O 0.4361085550403465 0.1621232839940533 0.2131618717256158 -0.9934394819660318
N 0.5537127976231931 -0.2103409101720849 -0.0009974125034992 0.8475065253219278
N 0.2679113140621886 0.4025942461468969 0.1798391695092252 0.9207393412409772
O 0.4632829993143097 0.3464812980107356 -0.1736125906365290 -0.6738758902636315
N 2.5483845344392768 1.0145867235263504 -0.4233338773050696 0.1207489421105395
N 0.7767119087734330 0.9083430320301646 -0.0093320656330044 0.4308753055723465
O 1.1866227095993409 0.7642339071191822 0.1644670445825459 -0.7095764258838037
N 1.3356853214079638 0.6492359089455038 -0.0904343892480568 0.9977500474782615
O 1.1912035263593443 0.8166265771479835 -0.1791419130368998 -0.9963537733476465
O 1.0034536541142631 2.2323724043482338 0.4677861930339453 -0.1586318904925156
N 0.9782783266136534 2.1930854078491371 0.3025387459116904 0.3123697133706422
