21
s                      x[A]                      y[A]                      z[A]                      q[e]
N        1.8274185093673934        1.2436702624628051        0.9932077276829515        0.0707249461841811
O        1.6758919911910466        0.0985423918460408       -0.0839181676422562       -0.3496602100029151
N        1.4263512154108131        0.0339676589799914        0.3927206064111199        0.9824851761690530
N        3.0662489089712941       -0.5629043686526436        0.0849195096459388        0.1071394941056757
O        1.4667523291611297       -0.0962329705119338        0.4855734481214881       -0.8194842575378962
N        0.5708326136266162       -0.5436447450875657       -0.1416257624777409        0.3116552922920345
N        0.9223095308159549       -1.7265223703578976       -0.9700243285489449        0.0918298459672651
N        1.3458680813194390       -0.8108183389970872       -0.3386599911940802        0.5593901217632046
O        1.0140137022299129       -0.6860909995088241       -0.2832822906493843       -0.9963138680841535
N       -0.7880122236543451        0.8591861590551138       -0.0060397010819735        0.9989733053171830
O       -0.7798741838669725        0.9542358806388920        0.0091601555879265       -0.8354521971080898
N       -0.6715711971248806        1.7218435096583327       -0.1140852998932809        0.2899344186932475
O       -0.6582911163981664        1.3334782944051389       -0.1180142270014099       -0.8678253524624289
N       -0.4824735006070298       -0.4063431643841413       -0.0360740063100031        0.9219570073558310
O       -0.5969586971724363       -0.2563675312927888        0.1416541487754696       -0.9704818863270434
O       -0.8268139681999299       -0.2953772541912836       -0.4879887087570293       -0.3320651923316272
N       -0.6303161456630323        0.3261942150655264       -0.0915908578637944        0.9769593393400061
O       -1.3082357172698840       -0.6162291179477396        0.6693558223015698       -0.1970026432733326
O       -1.5527025656878701       -0.6311375565525661       -0.3049574277414006       -0.1946060569702309
N       -2.7015485444970948       -0.1883997132128381        0.4572743975896644        0.1283355164991325
N       -1.5080275755124994       -2.0007115466963348        0.2545179471391565        0.1235072004109040

        RMSE         6.327630362E-01 kcal/mol

Coordinates in bohr
s                   x[bohr]                   y[bohr]                   z[bohr]                      q[e]
+        3.4533204992967641        2.3501961864309568        1.8768905910090776        0.0707249461841811
-        3.1669768791992610        0.1862181323365658       -0.1585823537941213       -0.3496602100029151
+        2.6954131558403400        0.0641895725951320        0.7421343899407343        0.9824851761690530
+        5.7943706704396165       -1.0637350915772452        0.1604746159389985        0.1071394941056757
-        2.7717601959919067       -0.1818539585068141        0.9176008307438175       -0.8194842575378962
+        1.0787173032335908       -1.0273396777598340       -0.2676339033920720        0.3116552922920345
+        1.7429124161416618       -3.2626544294526951       -1.8330803159886291        0.0918298459672651
+        2.5433220746891445       -1.5322245982031175       -0.6399746330067715        0.5593901217632046
-        1.9162081846760814       -1.2965240862132990       -0.5353259455196793       -0.9963138680841535
+       -1.4891272862197331        1.6236265313982134       -0.0114133809245612        0.9989733053171830
-       -1.4737486198235199        1.8032444734925719        0.0173101853277632       -0.8354521971080898
+       -1.2690856363118759        3.2538126641513494       -0.2155899717390240        0.2899344186932475
-       -1.2439899208144152        2.5199087706683363       -0.2230145679402749       -0.8678253524624289
+       -0.9117427789381976       -0.7678772936379166       -0.0681699921739434        0.9219570073558310
-       -1.1280884458660210       -0.4844644216031103        0.2676875457204949       -0.9704818863270434
-       -1.5624519566008654       -0.5581821141112665       -0.9221650118665895       -0.3320651923316272
+       -1.1911248877573140        0.6164177301825348       -0.1730816369583069        0.9769593393400061
-       -2.4722072131819606       -1.1645042634536769        1.2648991846305839       -0.1970026432733326
-       -2.9341826034457679       -1.1926771293750016       -0.5762860183553424       -0.1946060569702309
+       -5.1051868637287301       -0.3560238600870625        0.8641233756281790        0.1283355164991325
+       -2.8497591073567978       -3.7807968792972031        0.4809692141067586        0.1235072004109040
