21
s                      x[A]                      y[A]                      z[A]                      q[e]
N 1.2166249401545022 0.2571502417755454 0.5794423397668962 0.0690680479201058
O 0.5628606455759180 -0.6200867695956672 0.4272986408458954 -0.3117950550350966
N 0.4005625334987998 -0.3151036240588170 -0.4893294973816221 0.5776243102962968
N -0.1904863948203225 -0.6577383180211167 0.6784564448312720 0.0604184539076988
O 0.4677574745714262 0.0311702325911983 -0.5167494745081761 -0.3968494342195521
O 0.4192291036695602 0.0792199441444786 -0.0218801608266026 -0.9828651838991298
N 0.2379358165135224 0.0317791119106870 0.0903954965176180 0.7759263489545838
N 0.4125794228617410 -0.0959311916261662 0.5296791899884485 0.9970342621901004
O 0.3321427477062597 0.1729997172745824 0.5323066976469665 -0.3970377457969525
O 0.4347694642359621 -0.3693977659558400 0.5233860212673260 -0.3893757401670396
N -0.5769863551665405 0.9529603296939240 0.4963599062521569 0.1691966627363242
O 0.4979802262774511 -0.6203065625318600 -0.5517219297062593 -0.6800109224217911
O -0.8263326693196936 -0.6622989288651098 0.2898450625351418 -0.9821368279659007
N -0.7251220898303061 -0.5078635705080674 0.3892082141717774 0.8921713087406896
O -0.7451140618247515 -0.0605570245022480 0.5100203979916922 -0.3335771210350215
N -0.1681382505907407 -0.4936536167050279 0.2737602641786635 0.9988617281482304
N 0.2754527041042342 -1.7506875417742356 -0.4452400691741994 0.0655379221577991
N 0.7689407886559321 -1.0936204352471011 0.6182985990822638 0.9908754307264420
O 0.9871188197684396 0.9358660050978931 -0.4481499340669249 -0.6595771554465193
O -1.4607771169273767 -0.1324196504372905 0.2086639748749612 -0.5578053818499882
N -0.7476117115900524 -0.2539430311568072 0.8236956132852893 0.0943160920587207
