25
s                      x[A]                      y[A]                      z[A]                      q[e]
N 1.7964423316465743 1.1462786935111413 0.8995714607334155 0.1158659338886357
O 1.8390277344109049 0.0111768813709219 -0.3722063968349328 -0.2341991647481463
N 3.3213622504248472 -0.4537847754048576 -0.0174329400158699 0.0569852111266852
N 2.1182778804477782 -0.4084055800215174 -0.0447730457105311 0.3189271149812888
O 1.8116247670670460 -0.4417823519197448 0.2670500397415814 -0.2877498234141676
N 1.3766626862144202 -0.7593049226302941 -0.3324155113500513 0.5692545008206258
O 0.7929685056344264 -0.3226218746325422 -0.8131082880270950 -0.2058946535748549
O 1.1552534766924523 -0.5788774500633633 -0.2184990261900143 -0.9992971180892700
N 0.6844203000234068 -0.2916939116998491 -0.3114298379791072 0.6691943173322236
N 0.9553122456963800 -1.7936267352662196 -1.1078089760823748 0.0628076875181509
N -0.7021402832454130 1.5878773237768193 0.1284819017818518 0.7576134719858190
O -0.6656134283638586 1.2522944469751636 -0.0013355618184252 -0.9235083265987739
N -0.6938920727908259 0.8232543769884954 0.0260855094505677 0.9955526175656415
O -0.6918523302126689 1.3862356281173720 0.1456410723821154 -0.9936641819349231
O -0.4507741549089164 -0.2250736266479612 -0.0024364112462411 -0.9934394819660318
N -0.5201583323399135 0.2079234990116522 -0.1129840157205199 0.8475065253219278
N -0.4064427500712167 -0.4863212859919516 -0.1370381059995073 0.9207393412409772
O -0.6922417041286720 -0.3024038489264774 -0.3527610170766060 -0.6738758902636315
N -2.7846348145885833 -0.3322654848841297 0.3788057037871672 0.1207489421105395
N -1.0835354584156218 -0.7912616036432195 -0.0863124745553271 0.4308753055723465
O -1.3038830268340127 -0.5816344223875063 0.2737757919602190 -0.7095764258838037
N -1.5045791483617357 -0.3789939988636454 0.1248611754215274 0.9977500474782615
O -1.4746224358700337 -0.5573638792410642 -0.0320122008323993 -0.9963537733476465
O -1.5107180607600090 -2.0752569964444376 0.3706408981172099 -0.1586318904925156
N -1.5478320017363703 -2.0132382617862521 0.2058515498600094 0.3123697133706422
