25
s                      x[A]                      y[A]                      z[A]                      q[e]
N        1.8294550057819978        1.1860343345849571        0.7725319709243416        0.1158659338886357
O        1.8431601039877819       -0.1121956292639229       -0.3329542075066026       -0.2341991647481463
N        3.2993305690651589       -0.5828207716156333        0.1113978120950640        0.0569852111266852
N        2.0997365989256154       -0.4940778572330952        0.0537978469223628        0.3189271149812888
O        1.7873981458554264       -0.4726148819161944        0.3609912858067004       -0.2877498234141676
N        1.3483851626330854       -0.8512403735659735       -0.1987246057588871        0.5692545008206258
O        0.7906371058779742       -0.4612333231185638       -0.7457786544490070       -0.2058946535748549
O        1.1330769616271550       -0.6483963900324462       -0.1147616768373080       -0.9992971180892700
N        0.6761079421473540       -0.3581332852222731       -0.2551933184308605        0.6691943173322236
N        0.8955284928098971       -1.9638989963066416       -0.8355169241848405        0.0628076875181509
N       -0.6368124823316776        1.6170954637978900       -0.1016616698511178        0.7576134719858190
O       -0.6124706636711341        1.2658022564665519       -0.1841432467806437       -0.9235083265987739
N       -0.6591001962279771        0.8459274808048604       -0.0995392398370849        0.9955526175656415
O       -0.6352352724627278        1.4194103227721520       -0.0571897689655758       -0.9936641819349231
O       -0.4597233833091999       -0.2053269804013711        0.0188852906800979       -0.9934394819660318
N       -0.5092710743459482        0.2110243124176161       -0.1505787911872688        0.8475065253219278
N       -0.4243999270750294       -0.4839922511962934       -0.0782288148376607        0.9207393412409772
O       -0.6990364407629107       -0.3199579993733970       -0.3225863187922449       -0.6738758902636315
N       -2.8013839473760735       -0.1673990070586604        0.3637454001155088        0.1207489421105395
N       -1.1143471809429861       -0.7522127357539644       -0.0004677625586307        0.4308753055723465
O       -1.3309946332067675       -0.4870422498690418        0.3234283018732338       -0.7095764258838037
N       -1.5208111377359976       -0.2987547678357952        0.1444446261400811        0.9977500474782615
O       -1.4960481219795483       -0.4978363198549332        0.0137702073628456       -0.9963537733476465
O       -1.6016285857175367       -1.9442840378188333        0.6171554013784029       -0.1586318904925156
N       -1.6336821573675546       -1.9038236273850284        0.4447755269891999        0.3123697133706422

        RMSE         5.068805236E-01 kcal/mol

Coordinates in bohr
s                   x[bohr]                   y[bohr]                   z[bohr]                      q[e]
+        3.4571689197758433        2.2412800677551843        1.4598738482071556        0.1158659338886357
-        3.4830678019072785       -0.2120190117822159       -0.6291922645063338       -0.2341991647481463
+        6.2348311728840740       -1.1013716385815524        0.2105113558348846        0.0569852111266852
+        3.9679271075697011       -0.9336718348236029        0.1016631968225699        0.3189271149812888
-        3.3776929728178811       -0.8931126896371991        0.6821746638515354       -0.2877498234141676
+        2.5480786690074440       -1.6086111729721013       -0.3755350792738761        0.5692545008206258
-        1.4940875947339749       -0.8716046606288821       -1.4093174071210746       -0.2058946535748549
-        2.1412051365412119       -1.2252915978968573       -0.2168681389208095       -0.9992971180892700
+        1.2776588419053847       -0.6767738254805693       -0.4822454808810758        0.6691943173322236
+        1.6923035889547353       -3.7112312410810673       -1.5788981598942606        0.0628076875181509
+       -1.2034011848798229        3.0558675452982165       -0.1921127134753258        0.7576134719858190
-       -1.1574018142158369        2.3920195937083131       -0.3479803042680106       -0.9235083265987739
+       -1.2455188601063893        1.5985712607196700       -0.1881019020283519        0.9955526175656415
-       -1.2004206901851384        2.6822967696870639       -0.1080730005231460       -0.9936641819349231
-       -0.8687512879232584       -0.3880117591258384        0.0356880271850462       -0.9934394819660318
+       -0.9623828541315143        0.3987781562823439       -0.2845526756464409        0.8475065253219278
+       -0.8019996298360801       -0.9146128016047833       -0.1478310351623304        0.9207393412409772
-       -1.3209874247567259       -0.6046329904651278       -0.6095997943369728       -0.6738758902636315
+       -5.2938484327947437       -0.3163382770144499        0.6873791856133880        0.1207489421105395
+       -2.1058109806582426       -1.4214760586563724       -0.0008839431275554        0.4308753055723465
-       -2.5152153312149879       -0.9203764637792877        0.6111909117623110       -0.7095764258838037
+       -2.8739165388669581       -0.5645646898843902        0.2729607836989000        0.9977500474782615
-       -2.8271212210468719       -0.9407742998316468        0.0260219206065411       -0.9963537733476465
-       -3.0266393817105017       -3.6741643415768852        1.1662546854521800       -0.1586318904925156
+       -3.0872118534717750       -3.5977052469333777        0.8405039333157645        0.3123697133706422
