11
s                      x[A]                      y[A]                      z[A]                      q[e]
C 1.2331715635315958 -0.8625800114949090 -0.0722769749459367
C 0.4635810243090187 0.4314097415355551 0.0050240926641717
H 1.0342956535719934 -1.4962592229449958 0.7980670127500098
H 2.2959339106398482 -0.6257278980894436 -0.1019011853929735
H 0.9700876093444901 -1.4306132685323154 -0.9703501654701969
O -0.9086376204519854 0.3622763226618204 0.0469438508238891
O 0.9904751321921953 1.5364395019011194 0.0348191629045984
C -1.6162463277611547 -0.9071656048964786 0.0055106468816947
H -1.4200753687251517 -1.4355238731900581 -0.9313692992453816
H -2.6681725513135328 -0.6368937630892381 0.0616535848414792
H -1.3498081305815832 -1.5346921821330817 0.8602494397292617
