24
s                      x[A]                      y[A]                      z[A]                      q[e]
N 1.1837550479076491 -0.5711575037240948 -0.2529113382515756 0.6959175615854226
O 1.3139333405437317 -0.6021738596371715 -0.5461167410292057 -0.4294665048044459
N 0.9750832714974158 -1.4223972059027130 0.6728350296545650 0.7289443612696791
O 0.9799964747962548 -1.3111131605496809 0.5208486801450041 -0.8899528116456963
N 2.1781133056313480 -0.5742117934030866 -0.0152651589717734 0.4821174903544280
O 1.9214673513739573 -0.5810992316158438 0.0439441407130906 -0.6035297564939646
N 0.9274291924386350 -1.6185121103419435 -1.3048922495483557 0.0604057803354635
N 1.1241481295084699 1.7631442887159130 0.0579603872308993 0.6991174418445399
O 0.7102865384266946 1.8243665586019009 0.0513829119051302 -0.4131324281244263
O 1.2130573999525425 1.5506631678631257 0.0325086855133814 -0.9286014603942530
O -0.1122829048052073 0.4179225829181404 0.0102537204420384 -0.1057946580878595
N 0.6424802834654723 0.2973366616452138 -0.1554149506351696 0.9961038253671308
O 0.6441981610883358 0.1441307278243225 -0.4386479533707477 -0.3737552305035935
N -0.5778793311590343 0.3196139150494110 0.0678027782088687 0.9714181100989372
O -0.9723662037806589 0.3980176864340706 -0.1443884834203176 -0.9973398242463560
N -1.1240522174280188 0.4967176435178196 0.0573623584544464 0.7637225416907655
O -0.9793533425341908 0.4026634808953631 0.3109676305224855 -0.9974375214017446
O -1.9591099368924945 -0.7970994169858069 0.1362172051615240 -0.4871145088925188
N -1.2413796339633345 -0.5727737841396311 0.2433244099505924 0.4662300369825688
N -2.1929176135601978 -0.8242492086721832 0.0933247053975711 0.6223673236702755
N -1.6960255008006335 -1.2888635554246133 -0.9390811645172762 0.9509229066582735
O -1.7282656615385950 -1.2232733156632916 -0.8673030518556673 -0.9922381659518612
O -1.4152054566162346 -1.2583333897896087 0.5733887793112857 -0.6086911331096487
N -1.4016002520758672 -1.4698794042909560 0.8211593454255562 0.3897866237988844
