24
s                      x[A]                      y[A]                      z[A]                      q[e]
N 0.7679839982906487 1.0810429809405708 0.1938289912887577 0.6959175615854226
O 0.8705674197484283 1.1843447900612438 0.4824438240299399 -0.4294665048044459
N 0.1736825831616411 1.6814397663901293 -0.7669365789285894 0.7289443612696791
O 0.2288102713888004 1.5943853201447851 -0.6056930215067298 -0.8899528116456963
N 1.6381140152810170 1.5444230167847821 -0.0749785215592207 0.4821174903544280
O 1.4129640690702368 1.4283790639901850 -0.1233343112454903 -0.6035297564939646
N 0.0463386792758933 1.9304356289746218 1.2076210225863395 0.0604057803354635
N 1.8367189407471753 -1.0132535866670680 -0.0151711459070695 0.6991174418445399
O 1.4957985637059354 -1.2671674506914641 0.0053513734416828 -0.4131324281244263
O 1.8068048568724961 -0.7859690254600686 -0.0006564395897736 -0.9286014603942530
O 0.1013157796853617 -0.4202474141794963 0.0100880331559411 -0.1057946580878595
N 0.7088570078261471 0.0542874074238529 0.1503650623570817 0.9961038253671308
O 0.6375925615420096 0.2028758627235462 0.4265351887633794 -0.3737552305035935
N -0.3542860907830234 -0.5664064697754936 -0.0336497784388630 0.9714181100989372
O -0.6657298267943568 -0.8002964281795640 0.1882649735956879 -0.9973398242463560
N -0.7482613706260270 -0.9888878491123195 0.0018050957959941 0.7637225416907655
O -0.6716975183435153 -0.8334150231743991 -0.2737839151877953 -0.9974375214017446
O -2.1052567227662760 -0.2448964559072709 -0.1151733697440819 -0.4871145088925188
N -1.3632604625395472 -0.1030352853801409 -0.2291334113919175 0.4662300369825688
N -2.3219199952380563 -0.3273391868452007 -0.0642006800343202 0.6223673236702755
N -2.1067856806944389 0.3758941131509399 0.9384867274830379 0.9509229066582735
O -2.1024920977377546 0.2902053008087052 0.8677944113990113 -0.9922381659518612
O -1.8506179645737513 0.3996223181463136 -0.5902063303794588 -0.6086911331096487
N -1.9386350008205369 0.5789957197141478 -0.8417442648965590 0.3897866237988844
