21
s                      x[A]                      y[A]                      z[A]                      q[e]
N        1.8786376106063500        1.3448436083239628        0.7362123389452441        0.0707249461841811
O        1.6693381077222411        0.0318783991285103       -0.1449474669127259       -0.3496602100029151
N        1.4397753428348916        0.0844217969386798        0.3491356396858079        0.9824851761690530
N        3.0477373023228225       -0.6179684902352944        0.1036512467901415        0.1071394941056757
O        1.4689489566068423       -0.0699427432047503        0.4543930950964750       -0.8194842575378962
N        0.5332597843547275       -0.5954785297520064       -0.0885926729799619        0.3116552922920345
N        0.8491758778773271       -1.8561870750464020       -0.7168061281382825        0.0918298459672651
N        1.3022155805980096       -0.9028358448523965       -0.2589645008209302        0.5593901217632046
O        0.9967386981995187       -0.7302025877473399       -0.2072426499513816       -0.9963138680841535
N       -0.7652754042315234        0.8695759580952231        0.0041774968867214        0.9989733053171830
O       -0.7407935897305997        0.9677018052510550        0.0165755258902015       -0.8354521971080898
N       -0.6079723702785367        1.7294147473796082       -0.0969224890958450        0.2899344186932475
O       -0.5981313227729855        1.3422872244340802       -0.1046018311646910       -0.8678253524624289
N       -0.5049066985519588       -0.4124560741756068       -0.0223763334518512        0.9219570073558310
O       -0.6106884961134048       -0.2419099431525633        0.1526112259652507       -0.9704818863270434
O       -0.8194718208830671       -0.2715646501030451       -0.4885989841244629       -0.3320651923316272
N       -0.6243458936742120        0.3315035159740342       -0.0797691281926109        0.9769593393400061
O       -1.3549438912099681       -0.5845229870701991        0.6443885302551380       -0.1970026432733326
O       -1.5664731947719033       -0.5797852408675724       -0.3378994249250854       -0.1946060569702309
N       -2.7172593829579368       -0.1042540415703034        0.3910966299667845        0.1283355164991325
N       -1.5863857818012930       -1.9600728087278567        0.2082575661665139        0.1235072004109040

        RMSE         4.725852972E-01 kcal/mol

Coordinates in bohr
s                   x[bohr]                   y[bohr]                   z[bohr]                      q[e]
+        3.5501105730304898        2.5413861013047674        1.3912396907892415        0.0707249461841811
-        3.1545918343850534        0.0602414436709180       -0.2739110150439122       -0.3496602100029151
+        2.7207810801450960        0.1595340752331189        0.6597707396427022        0.9824851761690530
+        5.7593888037318006       -1.1677912007073667        0.1958724689956072        0.1071394941056757
-        2.7759112202639673       -0.1321726291202046        0.8586785030314522       -0.8194842575378962
+        1.0077149461511363       -1.1252913348215832       -0.1674158886543758        0.3116552922920345
+        1.6047098415333712       -3.5076852094523363       -1.3545672672311841        0.0918298459672651
+        2.4608308036342930       -1.7061124830173642       -0.4893719827674570        0.5593901217632046
-        1.8835631582424559       -1.3798829069430605       -0.3916318499222373       -0.9963138680841535
+       -1.4461609245466100        1.6432604060825649        0.0078943250058562        0.9989733053171830
-       -1.3998970000856021        1.8286913830356220        0.0313232043179164       -0.8354521971080898
+       -1.1489012716718712        3.2681202298752958       -0.1831569597888198        0.2899344186932475
-       -1.1303043870987595        2.5365552358813566       -0.1976688131226454       -0.8678253524624289
+       -0.9541353791722967       -0.7794290189734160       -0.0422851419159192        0.9219570073558310
-       -1.1540340056220524       -0.4571435395834169        0.2883934207446823       -0.9704818863270434
-       -1.5485773089992299       -0.5131828140505382       -0.9233182651721522       -0.3320651923316272
+       -1.1798427465984738        0.6264508548172589       -0.1507418055505714        0.9769593393400061
-       -2.5604728697489660       -1.1045883595972035        1.2177178405685063       -0.1970026432733326
-       -2.9602053209898544       -1.0956353168223114       -0.6385373710581099       -0.1946060569702309
+       -5.1348760456210307       -0.1970115860399688        0.7390655192267456        0.1283355164991325
+       -2.9978346569247449       -3.7040007944525355        0.3935497636091236        0.1235072004109040
