21
s                      x[A]                      y[A]                      z[A]                      q[e]
N        2.0604103971674217        1.5470767389006221       -0.3175068611351971        0.0707249461841811
O        1.6901452358853686        0.0017255917965865       -0.3236101424420985       -0.3496602100029151
N        1.5667173910498826        0.3004393207774765        0.1181065802884532        0.9824851761690530
N        3.1117531202618194       -0.5463136164852094        0.0212894058366372        0.1071394941056757
O        1.6218331040098359        0.2133200042949503        0.2766345771668265       -0.8194842575378962
N        0.6394411349005436       -0.3381819428676139       -0.0665931684596754        0.3116552922920345
N        0.8307092673464510       -1.8682735660971719        0.2594559807046104        0.0918298459672651
N        1.3995620812237055       -0.6903038807905827        0.0474874312840350        0.5593901217632046
O        1.0617440296760239       -0.5871915374120886        0.0152333511158351       -0.9963138680841535
N       -1.3034277785360517       -0.4621111877752356       -0.1181213089896953        0.9989733053171830
O       -1.3532983799182317       -0.5486977602701191       -0.1380572269732362       -0.8354521971080898
N       -1.7758444700291622       -1.2034488895095796       -0.0790178973677992        0.2899344186932475
O       -1.5029282810254843       -0.9300204487946457       -0.0511399648679568       -0.8678253524624289
N       -0.2291346944194343        0.2931368547627187       -0.0452712497115234        0.9219570073558310
O       -0.4281871384959319        0.2593287967984988       -0.2188556878875141       -0.9704818863270434
O       -0.5407412344208647        0.3570302829570096        0.4394804017828207       -0.3320651923316272
N       -0.8245739685847033       -0.1713381023187454       -0.0178739684424105        0.9769593393400061
O       -0.7903675270854628        1.1211951105948637       -0.4875978835587387       -0.1970026432733326
O       -0.8787810087766571        1.0605936775369995        0.5114853171624015       -0.1946060569702309
N       -2.0994652104019322        1.6065504305911924       -0.0342287677482122        0.1283355164991325
N       -0.0056844470897443        2.1979718793810972        0.1183827033349548        0.1235072004109040

        RMSE         1.559564362E+00 kcal/mol

Coordinates in bohr
s                   x[bohr]                   y[bohr]                   z[bohr]                      q[e]
+        3.8936113566922166        2.9235513315886048       -0.6000010104992927        0.0707249461841811
-        3.1939116080706644        0.0032608958998852       -0.6115345406359627       -0.3496602100029151
+        2.9606667850760915        0.5677480335880022        0.2231890903595725        0.9824851761690530
+        5.8803611673336755       -1.0323831137654487        0.0402311464049677        0.1071394941056757
-        3.0648203877797502        0.4031163851989437        0.5227635876771316       -0.8194842575378962
+        1.2083686183139606       -0.6390712525950167       -0.1258428502152628        0.3116552922920345
+        1.5698130051645200       -3.5305253673560881        0.4903007451437844        0.0918298459672651
+        2.6447890290885674       -1.3044852780348903        0.0897382395283243        0.5593901217632046
-        2.0064054314276540       -1.1096311888953716        0.0287868615818657       -0.9963138680841535
+       -2.4631215257470371       -0.8732635844052108       -0.2232169235711038        0.9989733053171830
-       -2.5573633040712358       -1.0368884925626403       -0.2608903486195856       -0.8354521971080898
+       -3.3558596897639190       -2.2741888071594638       -0.1493221850346755        0.2899344186932475
-       -2.8401228373432823       -1.7574839392972563       -0.0966405276659735       -0.8678253524624289
+       -0.4330018182932010        0.5539483727796466       -0.0855502633119909        0.9219570073558310
-       -0.8091564222007918        0.4900604023936675       -0.4135773111060798       -0.9704818863270434
-       -1.0218528377974239        0.6746894532834619        0.8304975968756994       -0.3320651923316272
+       -1.5582189708069563       -0.3237820882380997       -0.0337769051312319        0.9769593393400061
-       -1.4935781646468966        2.1187516922266929       -0.9214264592788924       -0.1970026432733326
-       -1.6606554308414339        2.0042315809370632        0.9665671666298734       -0.1946060569702309
+       -3.9674142575863471        3.0359403205536997       -0.0646829966560249        0.1283355164991325
+       -0.0107420481742725        4.1535648834881016        0.2237108872943877        0.1235072004109040
