21
s                      x[A]                      y[A]                      z[A]                      q[e]
N 2.0604103971674217 1.5470767389006221 -0.3175068611351971 0.0707249461841811
O 1.6901452358853686 0.0017255917965865 -0.3236101424420985 -0.3496602100029151
N 1.5667173910498826 0.3004393207774765 0.1181065802884532 0.9824851761690530
N 3.1117531202618198 -0.5463136164852094 0.0212894058366372 0.1071394941056757
O 1.6218331040098359 0.2133200042949503 0.2766345771668265 -0.8194842575378962
N 0.6394411349005436 -0.3381819428676140 -0.0665931684596754 0.3116552922920345
N 0.8307092673464510 -1.8682735660971719 0.2594559807046104 0.0918298459672651
N 1.3995620812237055 -0.6903038807905827 0.0474874312840350 0.5593901217632046
O 1.0617440296760239 -0.5871915374120886 0.0152333511158351 -0.9963138680841535
N -1.3034277785360517 -0.4621111877752356 -0.1181213089896953 0.9989733053171830
O -1.3532983799182317 -0.5486977602701191 -0.1380572269732362 -0.8354521971080898
N -1.7758444700291622 -1.2034488895095796 -0.0790178973677992 0.2899344186932475
O -1.5029282810254843 -0.9300204487946457 -0.0511399648679568 -0.8678253524624289
N -0.2291346944194343 0.2931368547627187 -0.0452712497115234 0.9219570073558310
O -0.4281871384959319 0.2593287967984988 -0.2188556878875141 -0.9704818863270434
O -0.5407412344208647 0.3570302829570096 0.4394804017828207 -0.3320651923316272
N -0.8245739685847033 -0.1713381023187454 -0.0178739684424105 0.9769593393400061
O -0.7903675270854628 1.1211951105948637 -0.4875978835587387 -0.1970026432733326
O -0.8787810087766571 1.0605936775369995 0.5114853171624015 -0.1946060569702309
N -2.0994652104019322 1.6065504305911924 -0.0342287677482122 0.1283355164991325
N -0.0056844470897443 2.1979718793810972 0.1183827033349548 0.1235072004109040
