21
s                      x[A]                      y[A]                      z[A]                      q[e]
N -2.1505964170490937 1.5454716349679929 -0.2187361752478305 0.0690680479201058
O -1.8743901505496008 -0.2823179663832255 0.3327294428058042 -0.3117950550350966
N -1.9750881453616029 -0.4051110577041306 -0.0158966295808419 0.5776243102962968
N -3.3056221254778273 -0.6489293036289735 -0.0569218506313789 0.0604184539076988
O -1.8252426289634618 -0.3609888957165185 -0.3333429322645606 -0.3968494342195521
O -0.9129460718176763 -0.1989339032992972 0.1386233768715924 -0.9828651838991298
N -0.7566860441968219 -0.0464695404714058 0.1308045791143833 0.7759263489545838
N -0.9750640643730478 -1.4016818938822506 0.1164373489002525 0.9970342621901004
O -0.9672157079205791 -1.4276310012989195 -0.1629653056934715 -0.3970377457969525
O -1.0375892383360739 -1.3926128263040840 0.3835034901808446 -0.3893757401670396
N 1.8390309851168469 -1.2005899879233977 -0.1565906485294511 0.1691966627363242
O 1.5076417525302424 -0.8947222989560886 -0.0925499338958396 -0.6800109224217911
O 0.3558116964247868 0.4151156193746951 -0.3128499459505926 -0.9821368279659007
N 0.2030670853306923 0.4832639472878347 -0.1863913108204925 0.8921713087406896
O 0.5598787605215969 0.4910239367584481 0.3531889125188197 -0.3335771210350215
N 0.7905606095671662 -0.1020695804974464 -0.0607175504243258 0.9988617281482304
N 2.2197220647995133 1.7595106913386511 -0.0084655945487477 0.0655379221577991
N 1.0419911524662058 1.1131779318716613 0.0313594368450650 0.9908754307264420
O 0.8999469592621067 1.0976594111657598 -0.3173989139574368 -0.6595771554465193
O 0.9797427170612569 1.1458789319263625 0.3981152585023646 -0.5578053818499882
N -0.2454592418324938 2.2315404750776291 0.0368350749507987 0.0943160920587207
