21
s                      x[A]                      y[A]                      z[A]                      q[e]
N       -2.1506356606839749        1.5451131330347425       -0.2186124547181239        0.0690680479201058
O       -1.8747473359518112       -0.2811780504649468        0.3326619299748930       -0.3117950550350966
N       -1.9743504153661267       -0.4072184993367243       -0.0158257425125887        0.5776243102962968
N       -3.3055758726438671       -0.6491037217822735       -0.0568995706421300        0.0604184539076988
O       -1.8257963423956569       -0.3593756649110832       -0.3333664725092331       -0.3968494342195521
O       -0.9145801648230139       -0.1947014020244665        0.1386043636906576       -0.9828651838991298
N       -0.7553463442315562       -0.0500092608080977        0.1308256548379242        0.7759263489545838
N       -0.9725853912422436       -1.4050640848065712        0.1156694942822845        0.9970342621901004
O       -0.9682629660496777       -1.4260852534954140       -0.1626660569059530       -0.3970377457969525
O       -1.0385491893085499       -1.3912537823162370        0.3838071351662677       -0.3893757401670396
N        1.8395743405615481       -1.2015681423025408       -0.1566741237508429        0.1691966627363242
O        1.5056054916201831       -0.8908369456553132       -0.0922460271135321       -0.6800109224217911
O        0.3539029239051624        0.4206414027014829       -0.3127489978863204       -0.9821368279659007
N        0.2047321559325278        0.4783038724524688       -0.1863437504696376        0.8921713087406896
O        0.5592262575523079        0.4929014086725990        0.3530949612410162       -0.3335771210350215
N        0.7928347792711881       -0.1075634781714383       -0.0608966620124701        0.9988617281482304
N        2.2194330126125106        1.7588133919545650       -0.0084320258808387        0.0655379221577991
N        1.0430320928168868        1.1068881017325649        0.0316361211490640        0.9908754307264420
O        0.8990171312417891        1.1018229018966217       -0.3173571188196044       -0.6595771554465193
O        0.9790002122748752        1.1493344708413358        0.3976876486499298       -0.5578053818499882
N       -0.2452227213525536        2.2309152800192051        0.0369099112083906        0.0943160920587207

        RMSE         6.893364151E+00 kcal/mol

Coordinates in bohr
s                   x[bohr]                   y[bohr]                   z[bohr]                      q[e]
+       -4.0641123943357647        2.9198406542837496       -0.4131176670313052        0.0690680479201058
-       -3.5427590193806013       -0.5313495078689097        0.6286399400187780       -0.3117950550350966
+       -3.7309815607258843       -0.7695314369663391       -0.0299063190808075        0.5776243102962968
+       -6.2466330862181740       -1.2266282611838717       -0.1075246051697664        0.0604184539076988
-       -3.4502550479904190       -0.6791215828362520       -0.6299713324524167       -0.3968494342195521
-       -1.7283060312915759       -0.3679323260689019        0.2619242871686941       -0.9828651838991298
+       -1.4273977204634336       -0.0945038066638964        0.2472246578273536        0.7759263489545838
+       -1.8379200230690911       -2.6551863090014711        0.2185836652637279        0.9970342621901004
-       -1.8297518232573620       -2.6949105606604333       -0.3073942974603892       -0.3970377457969525
-       -1.9625735356094145       -2.6290886195850112        0.7252903704608201       -0.3893757401670396
+        3.4762916910810135       -2.2706347100269406       -0.2960711848351806        0.1691966627363242
-        2.8451820321474370       -1.6834378497279010       -0.1743197274061327       -0.6800109224217911
-        0.6687796011794991        0.7948970481342192       -0.5910099520165348       -0.9821368279659007
+        0.3868877037870036        0.9038633236810791       -0.3521386535782686        0.8921713087406896
-        1.0567844689386043        0.9314486692435759        0.6672527730246677       -0.3335771210350215
+        1.4982405955603546       -0.2032655148456798       -0.1150780131581400        0.9988617281482304
+        4.1941205476374348        3.3236756165816406       -0.0159342195975574        0.0655379221577991
+        1.9710449954870255        2.0917153638024502        0.0597836046435351        0.9908754307264420
-        1.6988961601417578        2.0821435233418035       -0.5997180385334306       -0.6595771554465193
-        1.8500422779645913        2.1719273764381208        0.7515207394256659       -0.5578053818499882
+       -0.4634037830957857        4.2158188883353587        0.0697496234988245        0.0943160920587207
