25
s                      x[A]                      y[A]                      z[A]                      q[e]
N        1.8417063950459409        1.1216166252557345       -1.0862836394068618        0.1158659338886357
O        1.7893477098241182       -0.3975273712397384       -0.3686008637471211       -0.2341991647481463
N        3.3662818390887388       -0.3460234492395965        0.0308910991365091        0.0569852111266852
N        2.1645009689156103       -0.2733399011216411        0.0881307930412666        0.3189271149812888
O        1.9316286455418488        0.0449311661708332        0.2616367187454716       -0.2877498234141676
N        1.4409485169595997       -0.5608175396703388        0.3185150966044132        0.5692545008206258
O        0.6979815622756801       -0.5901884397581020        0.7826877432380048       -0.2058946535748549
O        1.1598082945170485       -0.5736733839193087        0.2030923151292974       -0.9992971180892700
N        0.6052079875457638       -0.5196953025704094        0.2758272919343410        0.6691943173322236
N        0.9755330699388074       -1.5760631618799423        1.2306602501256760        0.0628076875181509
N       -1.5851057343233905       -1.2033629182978229       -0.2631035606165927        0.7576134719858190
O       -1.3625360941244724       -0.9553863296217647       -0.1183008054079779       -0.9235083265987739
N       -1.1404583638375054       -0.5876438099982308       -0.1156967236173052        0.9955526175656415
O       -1.4569694451932400       -1.0427161240792029       -0.2741693935780991       -0.9936641819349231
O       -0.3329155751285836        0.1267676398177583       -0.0278625555684384       -0.9934394819660318
N       -0.6456257558637992       -0.1905046035266506        0.0587581821672250        0.8475065253219278
N       -0.1513395463733770        0.3108085526659227        0.1209872535651926        0.9207393412409772
O       -0.4964978113213552        0.3124601265387993        0.3296541431874166       -0.6738758902636315
N       -2.2186171716936491        1.5754146989914619       -0.1237715657975520        0.1207489421105395
N       -0.5476346853328932        0.9360638572392654        0.2221294295916790        0.4308753055723465
O       -0.8492767810697202        0.9486018020056963       -0.1401700645294545       -0.7095764258838037
N       -1.1297305759910854        0.8679895537259522       -0.0020294160520180        0.9977500474782615
O       -1.0034664199811294        0.9668553763737904        0.1767929771967134       -0.9963537733476465
O       -0.1861862536086409        2.2964343129123490        0.0121178635757543       -0.1586318904925156
N       -0.2468265330995826        2.2388922533984661        0.1658629736484574        0.3123697133706422

        RMSE         1.220443024E+00 kcal/mol

Coordinates in bohr
s                   x[bohr]                   y[bohr]                   z[bohr]                      q[e]
+        3.4803206901410704        2.1195482394936040       -2.0527785730445576        0.1158659338886357
-        3.3813771147827691       -0.7512178590163066       -0.6965546820892560       -0.2341991647481463
+        6.3613507369802145       -0.6538895520490962        0.0583757170823690        0.0569852111266852
+        4.0903140295386109       -0.5165375522796246        0.1665430620673985        0.3189271149812888
-        3.6502491161631503        0.0849075985603105        0.4944217427923796       -0.2877498234141676
+        2.7229980579382680       -1.0597915563300211        0.6019062994060835        0.5692545008206258
-        1.3189939933202228       -1.1152945135540788        1.4790654764724862       -0.2058946535748549
-        2.1917200346715537       -1.0840855810721164        0.3837888537795474       -0.9992971180892700
+        1.1436773454009856       -0.9820817905450134        0.5212380396826075        0.6691943173322236
+        1.8434903285114430       -2.9783277323761972        2.3256108262249553        0.0628076875181509
+       -2.9954157177639265       -2.2740263451145699       -0.4971936721981525        0.7576134719858190
-       -2.5748200539462820       -1.8054185069915130       -0.2235561226421585       -0.9235083265987739
+       -2.1551539651406233       -1.1104858602172329       -0.2186351212494954        0.9955526175656415
-       -2.7532732245754628       -1.9704479011085960       -0.5181050658454636       -0.9936641819349231
-       -0.6291192598923028        0.2395561208262459       -0.0526525991796985       -0.9934394819660318
+       -1.2200558581242791       -0.3600015263042972        0.1110368719258154        0.8475065253219278
+       -0.2859902945967070        0.5873430419885295        0.2286327739095352        0.9207393412409772
-       -0.9382448852865963        0.5904640642842280        0.6229560467466768       -0.6738758902636315
+       -4.1925788317388450        2.9771023151144460       -0.2338943614764566        0.1207489421105395
+       -1.0348795720804451        1.7689043261218667        0.4197637863324410        0.4308753055723465
-       -1.6049005209321785        1.7925976079065384       -0.2648830329484198       -0.7095764258838037
+       -2.1348813841788745        1.6402625363004131       -0.0038350405329219        0.9977500474782615
-       -1.8962767098579774        1.8270918642729130        0.3340903078060994       -0.9963537733476465
-       -0.3518410276453656        4.3396319165082629        0.0228994433838367       -0.1586318904925156
+       -0.4664345480544626        4.2308931833322294        0.3134355945496132        0.3123697133706422
