25
s                      x[A]                      y[A]                      z[A]                      q[e]
N 1.4489665210241678 0.0037677312818563 -0.0781490143335202 0.1158659338886357
O 0.2465291654657378 -0.4393408792906465 0.2290791710238286 -0.2341991647481463
N -0.8528817300225362 -0.0062090272034266 0.2335740765106449 0.0569852111266852
N -0.1004168394699756 0.0320025981795419 0.3772785372429007 0.3189271149812888
O 0.1796233984299911 0.3398388035875247 0.2596089763603474 -0.2877498234141676
N -0.0270119590216393 0.1138861183554891 -0.5381606975708833 0.5692545008206258
O 0.2917050174602189 0.4964201823153907 -0.4679777760619520 -0.2058946535748549
O 0.2741526105510754 0.1685181195285323 -0.5820181333389048 -0.9992971180892700
N 0.1195021186603112 0.0196358318659572 -0.3607050439993745 0.6691943173322236
N 1.0580857087062658 0.0206635048642649 -0.3501627249682231 0.0628076875181509
N -1.0165302075027762 -0.0031416180837455 0.3265877706926189 0.7576134719858190
O -0.9918423170199493 0.0735912663572754 -0.0279296034321768 -0.9235083265987739
N -1.1062972722062543 0.0119487805435389 -0.4405495345852925 0.9955526175656415
O -1.0146952877348145 -0.0533541450287580 0.1269805626931289 -0.9936641819349231
O -0.3172055156007501 -0.1180992355212977 0.5003989880733595 -0.9934394819660318
N -0.6999516911597451 0.0545490703575876 0.6679473637250369 0.8475065253219278
N -0.0499231007275130 -0.0179406782779945 0.3980281121588993 0.9207393412409772
O -0.3156192697269503 0.2550261980782134 0.2751259920510010 -0.6738758902636315
N -0.4471698185089028 0.0227685299643437 0.3090234341146801 0.1207489421105395
N -0.1511667308556618 0.0767034762234167 -0.3354265593816376 0.4308753055723465
O -0.0867543942863427 0.2114884152322521 0.6681577079972230 -0.7095764258838037
N 0.0261886979185510 0.0084674722003357 0.4336929782194023 0.9977500474782615
O -0.1276545158455924 -0.1265965086250636 0.5763904196665132 -0.9963537733476465
O -1.0541594685411593 0.3704677106087932 0.0830020396087425 -0.1586318904925156
N -1.0463989232948649 0.2018970246655215 0.0345116745968192 0.3123697133706422
