25
s                      x[A]                      y[A]                      z[A]                      q[e]
N       -1.9808437139036059        1.3590990400341740       -0.4914749365743635        0.1158659338886357
O       -1.8662687420275237       -0.0764405935037292        0.4265179347854863       -0.2341991647481463
N       -3.3487363629769646       -0.5297235192054611        0.0383122504838924        0.0569852111266852
N       -2.1420667809136829       -0.4305681706924791       -0.0148606842172588        0.3189271149812888
O       -1.8882340839778318       -0.3134031136913603       -0.3258765982464091       -0.2877498234141676
N       -1.3572156950016672       -0.7766870576142527        0.3115327901939482        0.5692545008206258
O       -0.8082550272238009       -0.6515042971780082       -0.3835954670581077       -0.2058946535748549
O       -1.0628189897308478       -0.7110689725952895        0.2802568140425372       -0.9992971180892700
N       -0.5647568926091302       -0.6286691164540582        0.1009374448491006        0.6691943173322236
N       -0.8433071430053672       -1.9906892564978416        0.4969012855367153        0.0628076875181509
N        1.7060528482931538       -1.0844953046912815       -0.1233904090445202        0.7576134719858190
O        1.4387746053704593       -0.8610879528552691       -0.1681677243768512       -0.9235083265987739
N        1.1897596585970835       -0.5161104293878471       -0.0678724710416831        0.9955526175656415
O        1.5789680681859324       -0.9462110983414531       -0.0613735108288810       -0.9936641819349231
O        0.3570970786098204        0.1100612887744864        0.1541789110962647       -0.9934394819660318
N        0.6451050426292834       -0.1681778579593012       -0.0444090956337772        0.8475065253219278
N        0.1301162255681604        0.2712345011489442        0.0942914708107760        0.9207393412409772
O        0.3853094844082395        0.3350967210917083       -0.2009485715382713       -0.6738758902636315
N        2.0818415912322918        1.7234424020214576       -0.0846183960040672        0.1207489421105395
N        0.4378869176472914        0.9545741924206680        0.0031159874056890        0.4308753055723465
O        0.8336193090890343        0.9444295069743109        0.2465316810258024       -0.7095764258838037
N        1.0506156995020512        0.9188943624418604        0.0108558041832556        0.9977500474782615
O        0.8689124472602722        1.0285111162170875       -0.0834108305056875       -0.9963537733476465
O        0.0877511361398452        2.2154170417977004        0.5749532523774690       -0.1586318904925156
N        0.1172314646896751        2.1929834561776658        0.4020525406408398        0.3123697133706422

        RMSE         5.519468380E-01 kcal/mol

Coordinates in bohr
s                   x[bohr]                   y[bohr]                   z[bohr]                      q[e]
+       -3.7432521166125561        2.5683249630372336       -0.9287530276523038        0.1158659338886357
-       -3.5267367989347274       -0.1444517865894991        0.8060020843404516       -0.2341991647481463
+       -6.3281945923881988       -1.0010323735120215        0.0723996606644959        0.0569852111266852
+       -4.0479195583679362       -0.8136559209481633       -0.0280826232075328        0.3189271149812888
-       -3.5682452794728392       -0.5922460517423935       -0.6158175213815639       -0.2877498234141676
+       -2.5647659567260539       -1.4677258240786228        0.5887116525662762        0.5692545008206258
-       -1.5273806409774449       -1.2311646912253229       -0.7248903757069037       -0.2058946535748549
-       -2.0084368115270781       -1.3437256145157750        0.5296086233337588       -0.9992971180892700
+       -1.0672358544958545       -1.1880124536317236        0.1907441265683041        0.6691943173322236
+       -1.5936195399224433       -3.7618574956721909        0.9390073410523110        0.0628076875181509
+        3.2239726388313135       -2.0493991102114624       -0.2331740796023577        0.7576134719858190
-        2.7188899604138337       -1.6272204008276006       -0.3177909422137269       -0.9235083265987739
+        2.2483199098666953       -0.9753073620354723       -0.1282603817268484        0.9955526175656415
-        2.9838172097146338       -1.7880798327339902       -0.1159791268244054       -0.9936641819349231
-        0.6748156787736455        0.2079856927987053        0.2913559162932512       -0.9934394819660318
+        1.2190718527211428       -0.3178100919092273       -0.0839210282271040        0.8475065253219278
+        0.2458840308021166        0.5125589229466812        0.1781850557989677        0.9207393412409772
-        0.7281293990729358        0.6332410284022564       -0.3797377655093025       -0.6738758902636315
+        3.9341104440163583        3.2568341328217416       -0.1599055936232221        0.1207489421105395
+        0.8274863482742870        1.8038837901051443        0.0058883628071281        0.4308753055723465
-        1.5753121870716524        1.7847131129826115        0.4658773583874948       -0.7095764258838037
+        1.9853759351651772        1.7364586832422981        0.0205144967779524        0.9977500474782615
-        1.6420065523232337        1.9436043266392229       -0.1576236255527325       -0.9963537733476465
-        0.1658256145020720        4.1865314626696115        1.0865041819346513       -0.1586318904925156
+        0.2215353615497660        4.1441381298357376        0.7597691898556903        0.3123697133706422
