25
s                      x[A]                      y[A]                      z[A]                      q[e]
N 0.0714946035822922 -0.0029953663077390 0.2416865192503435 0.1158659338886357
O -0.1715299178210753 0.4568759677827822 0.3006822606673281 -0.2341991647481463
N -0.0814338698363581 -0.0004981889260070 -0.3917602597590515 0.0569852111266852
N -0.5172248420520411 -0.0479497091995137 0.1507094208488536 0.3189271149812888
O -0.2274043094839531 -0.3293888800050189 0.2644796870778333 -0.2877498234141676
N 0.0147861720394129 0.1408546698464929 -0.5554227360397433 0.5692545008206258
O -0.1517809046511258 -0.5048013301565543 0.0427527860489955 -0.2058946535748549
O -0.0538488701124853 0.1348687311782305 -0.2588277419850334 -0.9992971180892700
N -0.1928699082907625 -0.0007773238777050 0.2396187229596663 0.6691943173322236
N 0.0184819029034518 -0.0300974045178096 0.3966235416840678 0.0628076875181509
N 0.0559729132288932 0.0044367037318813 0.2787427616063213 0.7576134719858190
O 0.0301865467598807 -0.0743119110335349 -0.0629981750703132 -0.9235083265987739
N 0.0999946444204551 -0.0100971794257361 -0.4897649361976089 0.9955526175656415
O 0.0632150303784634 0.0484373551742942 0.0862517982019851 -0.9936641819349231
O -0.0416839294132941 0.1086741676685488 -0.1258772107935208 -0.9934394819660318
N -0.0324248719526414 -0.0506890210726859 0.2915152869803574 0.8475065253219278
N -0.0831942218037639 0.0227270414819691 -0.3944603180612630 0.9207393412409772
O 0.1523438361226246 -0.2512518132676496 -0.2299482148985969 -0.6738758902636315
N -0.0678639697681641 0.0256024576940936 0.2176852958440743 0.1207489421105395
N 0.2683534071067422 0.0769260442845623 -0.4856174202886375 0.4308753055723465
O 0.3506973353472049 -0.2101157994653269 -0.1292863131126370 -0.7095764258838037
N 0.4506550688909499 -0.0035465307515978 0.0957965875373440 0.9977500474782615
O 0.3084026523159626 0.1188788884486655 -0.0426704695498847 -0.9963537733476465
O -0.0265152295313050 -0.3671266243182820 -0.1408630893153535 -0.1586318904925156
N -0.0386316303427855 -0.1997514500632368 -0.0828292610075040 0.3123697133706422
