25
s                      x[A]                      y[A]                      z[A]                      q[e]
N 0.0653702941748977 -0.0035741469568266 0.2443855220318817 0.1158659338886357
O -0.1738644054985845 0.4400598830072014 0.3070548514904498 -0.2341991647481463
N -0.0838815677788260 -0.0061522141602067 -0.3910042652820128 0.0569852111266852
N -0.5105810871060339 -0.0325443566243781 0.1396230418977323 0.3189271149812888
O -0.2397786568050214 -0.3395387039225054 0.2739763522161608 -0.2877498234141676
N 0.0398295450727360 0.1148469832213285 -0.5524047091952787 0.5692545008206258
O -0.1602595626815702 -0.4970909576558949 0.0424188754751052 -0.2058946535748549
O -0.0730353289711465 0.1671659520674197 -0.2748227184325610 -0.9992971180892700
N -0.1841798974329995 -0.0182173322435907 0.2438924571783645 0.6691943173322236
N 0.0174695157697285 -0.0207941107368869 0.3799640466340216 0.0628076875181509
N 0.0594903294620684 0.0046346345886446 0.2967992824856737 0.7576134719858190
O 0.0359242106617064 -0.0753693170949181 -0.0568127605012676 -0.9235083265987739
N 0.1083568225371128 -0.0099231338760690 -0.4751788371726921 0.9955526175656415
O 0.0693340123620220 0.0517240803423144 0.0967132016367683 -0.9936641819349231
O -0.0430827512049849 0.1161404963772174 -0.1240305954354961 -0.9934394819660318
N -0.0259104014870990 -0.0526840894104171 0.2968682705369796 0.8475065253219278
N -0.0780175873135228 0.0198629999220945 -0.4042222769715816 0.9207393412409772
O 0.1556572457212737 -0.2567497116636299 -0.2265700701794258 -0.6738758902636315
N -0.0645018169904806 0.0228428927256092 0.2205344431936980 0.1207489421105395
N 0.2613488296537522 0.0756594878361553 -0.4891270993442466 0.4308753055723465
O 0.3494928680223046 -0.2119454837840779 -0.1259190512240150 -0.7095764258838037
N 0.4479959727191003 -0.0079055227793104 0.1040816815977353 0.9977500474782615
O 0.3051744917834117 0.1261763710146556 -0.0349097089554377 -0.9963537733476465
O -0.0341341466486265 -0.3707244929617675 -0.1403154662933167 -0.1586318904925156
N -0.0307545437530923 -0.2017089591535965 -0.0950582171843177 0.3123697133706422
