25
s                      x[A]                      y[A]                      z[A]                      q[e]
N       -1.9289559558574036        1.3204578635755242       -0.4767683967800962        0.1158659338886357
O       -1.8655563314606520       -0.0755005535126726        0.3684566112096719       -0.2341991647481463
N       -3.3532001133622273       -0.5359557060949242        0.0399788261517554        0.0569852111266852
N       -2.1145168142816182       -0.3888728838667673        0.0433777506681579        0.3189271149812888
O       -1.8722041574195429       -0.3441164067650889       -0.3800169673219608       -0.2877498234141676
N       -1.2962350888750229       -0.7971119664416654        0.2489773327116362        0.5692545008206258
O       -0.7755845737229491       -0.6500215564467962       -0.3308001044637305       -0.2058946535748549
O       -1.0301351790406414       -0.6461149965068275        0.2972219042732842       -0.9992971180892700
N       -0.5412334379805196       -0.5976533143348518        0.0975848566004220        0.6691943173322236
N       -0.8400760151355181       -2.0260730335118389        0.5722878366922921        0.0628076875181509
N        1.5410769618598652       -0.9807310689276265       -0.1010166768028173        0.7576134719858190
O        1.3168950314626047       -0.8055877219785513       -0.1246478936492099       -0.9235083265987739
N        1.0611564112944205       -0.4574152653950032       -0.0418530879960328        0.9955526175656415
O        1.4284148181628793       -0.8676137718293537       -0.0529562440916760       -0.9936641819349231
O        0.3237198648406363        0.0898505295880794        0.1274054281017703       -0.9934394819660318
N        0.5880586279924613       -0.1487179002942953       -0.0141266935442697        0.8475065253219278
N        0.1193864148648747        0.2436003984470161        0.0968493054267415        0.9207393412409772
O        0.3810718252541662        0.3089693345560027       -0.1474434612390998       -0.6738758902636315
N        2.1014349048908292        1.6970215473779304       -0.0791751068589022        0.1207489421105395
N        0.4232910903874850        0.9209475472215698        0.0201763108531579        0.4308753055723465
O        0.7914109431011684        0.9065607397663265        0.2126276765778928       -0.7095764258838037
N        0.9774120559572663        0.8562395405593826        0.0129393781130510        0.9977500474782615
O        0.8122887735535627        0.9706505434002586       -0.0530180469201732       -0.9963537733476465
O        0.1337952330029111        2.1563374831458209        0.5395171001756234       -0.1586318904925156
N        0.1150189382552876        2.1460107079420974        0.3789782172157383        0.3123697133706422

        RMSE         4.364139068E-01 kcal/mol

Coordinates in bohr
s                   x[bohr]                   y[bohr]                   z[bohr]                      q[e]
+       -3.6451984646412128        2.4953037223648966       -0.9009616951879917        0.1158659338886357
-       -3.5253905380744577       -0.1426753684594243        0.6962820843005747       -0.2341991647481463
+       -6.3366298581087523       -1.0128094998957755        0.0755490322441089        0.0569852111266852
+       -3.9958576666678320       -0.7348632481251582        0.0819720687012137        0.3189271149812888
-       -3.5379531084664708       -0.6502857640626615       -0.7181279912655630       -0.2877498234141676
+       -2.4495293121822805       -1.5063233078998786        0.4704989702719848        0.5692545008206258
-       -1.4656424314663299       -1.2283627173282710       -0.6251215997092903       -0.2058946535748549
-       -1.9466733605862776       -1.2209803889490451        0.5616679975635508       -0.9992971180892700
+       -1.0227829677231470       -1.1294010820650289        0.1844086529668733        0.6691943173322236
+       -1.5875135931720945       -3.8287231435129159        1.0814672762791675        0.0628076875181509
+        2.9122133961677643       -1.8533131230007178       -0.1908938532612136        0.7576134719858190
-        2.4885709454404927       -1.5223401645709258       -0.2355503811122008       -0.9235083265987739
+        2.0052949936201387       -0.8643895772001636       -0.0790908738171886        0.9955526175656415
-        2.6993127998734860       -1.6395524114329367       -0.1000727979661618       -0.9936641819349231
-        0.6117418859190275        0.1697928931488152        0.2407613660090543       -0.9934394819660318
+        1.1112697526182402       -0.2810361015093623       -0.0266955818569428        0.8475065253219278
+        0.2256076271949005        0.4603380371172628        0.1830186626973581        0.9207393412409772
-        0.7201213838586979        0.5838674234757985       -0.2786277607314555       -0.6738758902636315
+        3.9711364407211867        3.2069059535449447       -0.1496192679171828        0.1207489421105395
+        0.7999042321787613        1.7403386401609073        0.0381277017345708        0.4308753055723465
-        1.4955499351514967        1.7131515142508025        0.4018080754246416       -0.7095764258838037
+        1.8470410974798948        1.6180582294450729        0.0244518808674096        0.9977500474782615
-        1.5350033168002650        1.8342636905533061       -0.1001895883858002       -0.9963537733476465
-        0.2528363472673186        4.0748872772046365        1.0195395593331238       -0.1586318904925156
+        0.2173542925434378        4.0553725003104306        0.7161650380520123        0.3123697133706422
