21
s                      x[A]                      y[A]                      z[A]                      q[e]
N        1.8955955567296434       -1.4447965079825138       -0.3735490534849451        0.0707249461841811
O        1.6256198894363521       -0.0316030752014736        0.3160862129442408       -0.3496602100029151
N        1.4862897274293083       -0.1542102016175343       -0.1968496737032998        0.9824851761690530
N        3.0547180809286800        0.5615970788874539        0.2027297760605303        0.1071394941056757
O        1.5359227717732409        0.0482376629744623       -0.3098981291197864       -0.8194842575378962
N        0.5373446498302478        0.5483416349226355       -0.0833730796225537        0.3116552922920345
N        0.8895790168107176        1.8870848974809720        0.1027849143451417        0.0918298459672651
N        1.3323344401930657        0.8133397260031854        0.0154068317259121        0.5593901217632046
O        1.0044999181962833        0.7347330089184564       -0.0128226997612774       -0.9963138680841535
N       -0.7825582872467901       -0.8952578793333712       -0.1457332154917206        0.9989733053171830
O       -0.7722066669312888       -0.9205417362314763       -0.1760284419893110       -0.8354521971080898
N       -0.6417444754682644       -1.7360956926382516       -0.1395979416464858        0.2899344186932475
O       -0.6249004042332013       -1.3056984880511602       -0.1057371748084107       -0.8678253524624289
N       -0.4947769174197040        0.3629641255774884       -0.0383380297083441        0.9219570073558310
O       -0.6399815636915779        0.2966117812641765       -0.2106894082406822       -0.9704818863270434
O       -0.7673223605224627        0.2582641690087660        0.4461931154155293       -0.3320651923316272
N       -0.6270330734325533       -0.3762220569904403       -0.0135768368428911        0.9769593393400061
O       -1.4805221845152108        0.6626698537693405       -0.4537900449983836       -0.1970026432733326
O       -1.4786612344495791        0.5667679318205845        0.5423098478296197       -0.1946060569702309
N       -2.7642815030228016        0.1509139793727550       -0.0031968848894479        0.1283355164991325
N       -1.5639037694187936        1.9749391480905043        0.1425737165636434        0.1235072004109040

        RMSE         8.456796473E+00 kcal/mol

Coordinates in bohr
s                   x[bohr]                   y[bohr]                   z[bohr]                      q[e]
+        3.5821564468537836       -2.7302697071047959       -0.7059054055105444        0.0707249461841811
-        3.0719763751317406       -0.0597211568530330        0.5973163744977581       -0.3496602100029151
+        2.8086805279227582       -0.2914150468087736       -0.3719919711849744        0.9824851761690530
+        5.7725805634393268        1.0612646719544225        0.3831037542297991        0.1071394941056757
-        2.9024733885054945        0.0911559719538712       -0.5856225908281637       -0.8194842575378962
+        1.0154342231592075        1.0362155131895630       -0.1575522867226154        0.3116552922920345
+        1.6810607087263016        3.5660736317267001        0.1942353379409594        0.0918298459672651
+        2.5177471994800666        1.5369893291009311        0.0291146924229886        0.5593901217632046
-        1.8982297384357678        1.3884441621894466       -0.0242313907377878       -0.9963138680841535
+       -1.4788208401037908       -1.6917922035982433       -0.2753958646616799        0.9989733053171830
-       -1.4592591127527681       -1.7395717685309298       -0.3326455456508388       -0.8354521971080898
+       -1.2127213011606095       -3.2807453866733076       -0.2638018773895015        0.2899344186932475
-       -1.1808906196886380       -2.4674125448410633       -0.1998143016675550       -0.8678253524624289
+       -0.9349928671215051        0.6859027907077356       -0.0724483763384362        0.9219570073558310
-       -1.2093898807193277        0.5605150321734972       -0.3981452791096669       -0.9704818863270434
-       -1.4500291113272683        0.4880485474455212        0.8431827872001456       -0.3320651923316272
+       -1.1849207803916129       -0.7109566500683190       -0.0256565032830896        0.9769593393400061
-       -2.7977814513982890        1.2522645352212414       -0.8575389035061289       -0.1970026432733326
-       -2.7942647654410924        1.0710361678330595        1.0248170875366915       -0.1946060569702309
+       -5.2237349743820207        0.2851860895174990       -0.0060412368956711        0.1283355164991325
+       -2.9553498107726694        3.7320941043360527        0.2694252769939365        0.1235072004109040
