21
s                      x[A]                      y[A]                      z[A]                      q[e]
N -1.9701882646718474 1.4588602071126071 -0.7230939692473901 0.0707249461841811
O -1.7000303916708466 0.1577729385444083 0.1748970714390631 -0.3496602100029151
N -1.5257586734946837 0.1961116636307278 -0.3425364975385440 0.9824851761690530
N -3.1206177157420614 -0.4519163518918051 0.0802624801538157 0.1071394941056757
O -1.5716773419974568 0.0415560755936955 -0.4413428182027390 -0.8194842575378962
N -0.6200523825463666 -0.3190704897518770 0.2987260379678547 0.3116552922920345
N -0.8774945043347722 -1.7547727366362245 0.6844778582071291 0.0918298459672651
N -1.4011916039259575 -0.6424981097090003 0.3007722332394081 0.5593901217632046
O -1.0593961001089287 -0.5505646053822846 0.2780218189872037 -0.9963138680841535
N 1.2973157786023015 -0.4894249990846498 -0.0140261947001908 0.9989733053171830
O 1.3471845380723824 -0.5781734917477291 -0.0097175843180514 -0.8354521971080898
N 1.7311342008140986 -1.2342175445352639 -0.1911528047998295 0.2899344186932475
O 1.4664964893299808 -0.9545000092781699 -0.1493375006313493 -0.8678253524624289
N 0.2521779905607258 0.2886275763365275 0.1638809094923998 0.9219570073558310
O 0.4780816620632572 0.2381219985029288 0.2954602971729340 -0.9704818863270434
O 0.4731749963103434 0.3833211631108021 -0.3637161125216579 -0.3320651923316272
N 0.8178530247338174 -0.1832888085877008 -0.0044705305030688 0.9769593393400061
O 0.9257435058891044 1.0440475350984180 0.5734999017630673 -0.1970026432733326
O 0.7908342520278830 1.1115323222846083 -0.4199295200468907 -0.1946060569702309
N 2.1180125674184209 1.5801858293125444 -0.0948465898546245 0.1283355164991325
N 0.0574266669509768 2.1879856201921806 0.2952208817211069 0.1235072004109040
