21
s                      x[A]                      y[A]                      z[A]                      q[e]
N       -1.7842906959212643        0.9807394795978061       -1.4718128951067182        0.0707249461841811
O       -1.6815344460012496        0.3409601852778407       -0.0105873690090238       -0.3496602100029151
N       -1.4715307007881693        0.0937215272330699       -0.4511608597941443        0.9824851761690530
N       -3.1362611274677699       -0.1660256645347258        0.1016444219295405        0.1071394941056757
O       -1.5218201633883244       -0.0823667802586803       -0.4628746230505646       -0.8194842575378962
N       -0.6172122044180233       -0.0992182987918547        0.4893138098622468        0.3116552922920345
N       -1.0366008519058603       -1.0460996027191343        1.4875713355772282        0.0918298459672651
N       -1.4354890464451777       -0.2691447190421907        0.6178042014869256        0.5593901217632046
O       -1.0899782185263416       -0.2384835499544214        0.5392772339209158       -0.9963138680841535
N        1.1742837029591939       -0.6313621973938784       -0.0837242098518929        0.9989733053171830
O        1.2079985241640894       -0.7229510870577881       -0.0856573356315905       -0.8354521971080898
N        1.4353734860389036       -1.4459519506998926       -0.2856102047304618        0.2899344186932475
O        1.2354157818621407       -1.1177458398280287       -0.2225670405292809       -0.8678253524624289
N        0.3272229342958971        0.3281369268193933        0.2025775277395788        0.9219570073558310
O        0.5568554204892325        0.2447385253311437        0.2993414185739986       -0.9704818863270434
O        0.4810128020349436        0.3735888267966282       -0.3578140270256603       -0.3320651923316272
N        0.7666235884603972       -0.2439052604107274       -0.0214145509349509        0.9769593393400061
O        1.1595012821821724        0.9371153233005639        0.5533195108049980       -0.1970026432733326
O        0.9393381365833555        1.0303009023701644       -0.4226601538631548       -0.1946060569702309
N        2.3540889293773781        1.2510102014203124       -0.2373362909308221        0.1283355164991325
N        0.4838591048917565        2.2136852634996806        0.3464906198224355        0.1235072004109040

        RMSE         1.535097105E+00 kcal/mol

Coordinates in bohr
s                   x[bohr]                   y[bohr]                   z[bohr]                      q[e]
+       -3.3718207434937426        1.8533290168638887       -2.7813232796688876        0.0707249461841811
-       -3.1776395734658167        0.6443213698604771       -0.0200072278162148       -0.3496602100029151
+       -2.7807900096926699        0.1771080185301395       -0.8525704635370107        0.9824851761690530
+       -5.9266745888336683       -0.3137430357677685        0.1920801196273113        0.1071394941056757
-       -2.8758233210034172       -0.1556506565246722       -0.8747062679900961       -0.8194842575378962
+       -1.1663620276401561       -0.1874954113504486        0.9246690900439921        0.3116552922920345
+       -1.9588917115183451       -1.9768417490894028        2.8111024163224823        0.0918298459672651
+       -2.7126811538759981       -0.5086098071030347        1.1674807399674554        0.5593901217632046
-       -2.0597603157292093       -0.4506685948407971        1.0190862778049870       -0.9963138680841535
+        2.2190745921813488       -1.1931016390416744       -0.1582158266904356        0.9989733053171830
-        2.2827863706273792       -1.3661795566412389       -0.1618689049801263       -0.8354521971080898
+        2.7124627763571931       -2.7324531773942966       -0.5397250655765127        0.2899344186932475
-        2.3345974787877966       -2.1122335151448266       -0.4205907511540133       -0.8678253524624289
+        0.6183617277879271        0.6200889233380510        0.3828160466001399        0.9219570073558310
-        1.0523042362013071        0.4624887852242848        0.5656732991108924       -0.9704818863270434
-        0.9089824586851073        0.7059805661767279       -0.6761705149256636       -0.3320651923316272
+        1.4487086235058431       -0.4609141427347465       -0.0404676363667241        0.9769593393400061
-        2.1911398654415004        1.7708913090079346        1.0456223352937497       -0.1970026432733326
-        1.7750918173404406        1.9469865322916748       -0.7987119349452291       -0.1946060569702309
+        4.4485833514954800        2.3640666608382239       -0.4485005894912343        0.1283355164991325
+        0.9143611915545919        4.1832588759763425        0.6547723765045323        0.1235072004109040
