25
s                      x[A]                      y[A]                      z[A]                      q[e]
N -1.7735953641829851 1.0864697096570290 -1.0001193703600282 0.1158659338886357
O -1.8545375041851486 -0.0222855890594597 0.2953110894139161 -0.2341991647481463
N -3.3102242797882853 -0.5180300387229404 -0.1087124506493955 0.0569852111266852
N -2.1077056391526585 -0.4571914320895825 -0.0379459509477727 0.3189271149812888
O -1.7936891688393828 -0.4853459271664720 -0.3332832941375616 -0.2877498234141676
N -1.3810031120200690 -0.7737555352238457 0.2797100429925999 0.5692545008206258
O -0.7884255262502943 -0.4092183497165436 0.8124667121826696 -0.2058946535748549
O -1.1639678381613547 -0.5769444962946809 0.1957432927150792 -0.9992971180892700
N -0.6850318922265881 -0.3089767098869308 0.3135662207494916 0.6691943173322236
N -0.9710218190390887 -1.7983447414912885 1.0983570333665293 0.0628076875181509
N 0.7088321883345535 1.6128463344716550 0.1144014585728722 0.7576134719858190
O 0.6716343451134348 1.2600272472893044 0.1930390230551536 -0.9235083265987739
N 0.6987319234989592 0.8395668614989866 0.1104842917578827 0.9955526175656415
O 0.6961559552469361 1.4137366987018094 0.0644679954477425 -0.9936641819349231
O 0.4474202153127615 -0.2057143502505832 -0.0035620420089625 -0.9934394819660318
N 0.5232716363141593 0.2084946160080649 0.1658044272701359 0.8475065253219278
N 0.4055997021055169 -0.4843120913429835 0.0934825544667096 0.9207393412409772
O 0.6945925324218845 -0.3323800793364893 0.3306180165065791 -0.6738758902636315
N 2.7736823981201586 -0.2641769719160446 -0.4380073772453389 0.1207489421105395
N 1.0782962743107420 -0.7803806276949624 -0.0141503114847656 0.4308753055723465
O 1.2931707301092643 -0.5208822483511442 -0.3442237028320433 -0.7095764258838037
N 1.4992239262775695 -0.3427132607373893 -0.1714741230106754 0.9977500474782615
O 1.4697212275417326 -0.5413065896065763 -0.0395388463534387 -0.9963537733476465
O 1.4898978995728749 -1.9867818795468672 -0.6524958885222227 -0.1586318904925156
N 1.5277983326285896 -1.9519073536880180 -0.4846000947768493 0.3123697133706422
