25
s                      x[A]                      y[A]                      z[A]                      q[e]
N 0.0658688444928076 -0.0101658431503403 0.2449474120083942 0.1158659338886357
O -0.1650840328678707 0.4220732639565157 0.3108308341631744 -0.2341991647481463
N -0.0850439412168657 -0.0160870725910954 -0.3923081806222737 0.0569852111266852
N -0.5129224855614295 -0.0041269384739283 0.1384783945843218 0.3189271149812888
O -0.2386721100357281 -0.3673604256343586 0.2760036938084984 -0.2877498234141676
N 0.0095785639820244 0.1017336335157085 -0.5546971593195227 0.5692545008206258
O -0.1499655176823071 -0.4830528860574602 0.0523232294863281 -0.2058946535748549
O -0.0488288522739745 0.1767833614333281 -0.2626515620349692 -0.9992971180892700
N -0.1962193357203330 -0.0256563441928296 0.2381372913591643 0.6691943173322236
N 0.0178191050413813 -0.0106017378762579 0.3913281405066521 0.0628076875181509
N 0.0557223319877025 0.0052549862576379 0.2785769357043300 0.7576134719858190
O 0.0315064204612175 -0.0733420190476411 -0.0611412288483601 -0.9235083265987739
N 0.0995046907347126 -0.0073151232275053 -0.4893693536548045 0.9955526175656415
O 0.0634002893720836 0.0500800409799879 0.0887532177285123 -0.9936641819349231
O -0.0436880069543632 0.1133485041849073 -0.1274642371594270 -0.9934394819660318
N -0.0333459476139750 -0.0504661603700210 0.2920091479218025 0.8475065253219278
N -0.0825667125379540 0.0184609358166580 -0.3931331336612439 0.9207393412409772
O 0.1565535503245042 -0.2495534780045231 -0.2281723844816657 -0.6738758902636315
N -0.0678355732244520 0.0212799544209649 0.2176075649430625 0.1207489421105395
N 0.2681422769836092 0.0750021521084794 -0.4853464601173749 0.4308753055723465
O 0.3509269516922848 -0.2056738319518451 -0.1317331314489264 -0.7095764258838037
N 0.4500027997289983 -0.0097858005587687 0.0967697892018513 0.9977500474782615
O 0.3085611603178692 0.1240802010017420 -0.0413974806900632 -0.9963537733476465
O -0.0234115649607624 -0.3673990353610344 -0.1426641139218393 -0.1586318904925156
N -0.0414770647126230 -0.2007572970646535 -0.0824550459767964 0.3123697133706422
