25
s                      x[A]                      y[A]                      z[A]                      q[e]
N -1.6757567116420746 0.1319776612616168 -1.6442181117799028 0.1158659338886357
O -1.8221140271762177 0.3174395144496665 0.0348212044221636 -0.2341991647481463
N -3.3675219092175506 -0.1448513094159387 0.0260681810162590 0.0569852111266852
N -2.1644778474844353 -0.1735926405675867 0.1150754201185617 0.3189271149812888
O -1.8848345656745518 -0.4589011841399275 -0.0462595340193597 -0.2877498234141676
N -1.4802459873920939 -0.2672402464495409 0.5438042844584969 0.5692545008206258
O -0.7535357042485950 -0.0278985263913308 0.9715033571955882 -0.2058946535748549
O -1.2368397992423272 -0.1337136367602659 0.4194998679434699 -0.9992971180892700
N -0.6959910769489065 0.0143093364922868 0.4563423650443765 0.6691943173322236
N -1.1537932732025793 -0.4132317977439582 1.9336128602354123 0.0628076875181509
N 1.0563346266990195 1.5364887143755239 -0.0659262973862269 0.7576134719858190
O 0.9521641475936249 1.2066647949802380 0.0452589744054113 -0.9235083265987739
N 0.8758028995186320 0.7867568448948248 -0.0037933804610412 0.9955526175656415
O 0.9927606707431115 1.3433966052093143 -0.0979035275001341 -0.9936641819349231
O 0.3853686956482474 -0.1815576674443149 0.0004155102011475 -0.9934394819660318
N 0.5731775013929225 0.2124947505701687 0.1245244546000620 0.8475065253219278
N 0.2971625076759657 -0.4381371822673985 0.1244469516833996 0.9207393412409772
O 0.6405477989205831 -0.3428456123447112 0.3133513847740219 -0.6738758902636315
N 2.6338970928601952 -0.8043096061396442 -0.4575350021257523 0.1207489421105395
N 0.8902239606263179 -0.8830043106199663 0.0670913838160010 0.4308753055723465
O 1.1384919967599367 -0.7173597444521843 -0.2980537070086527 -0.7095764258838037
N 1.3870112715279128 -0.5699282285740206 -0.1540480730392025 0.9977500474782615
O 1.3216249622568399 -0.7396467154256892 0.0028429786133124 -0.9963537733476465
O 0.9996804097351590 -2.2163136284694436 -0.4214428077308662 -0.1586318904925156
N 1.0524449174247490 -2.1714628067486244 -0.2607250380215111 0.3123697133706422
