25
s                      x[A]                      y[A]                      z[A]                      q[e]
N       -1.9338565057205710        1.2953718585993728        0.0042905973519431        0.1158659338886357
O       -1.7760691895942238       -0.3364876221396603        0.4378994435590095       -0.2341991647481463
N       -3.2850524147097397       -0.6792462168163838        0.0065290936503840        0.0569852111266852
N       -2.0890381176815591       -0.5428430625311582       -0.0316298867674513        0.3189271149812888
O       -1.8375838445089172       -0.3764907246649924       -0.3388346297257653       -0.2877498234141676
N       -1.2763960561800975       -0.9696189780128329       -0.1134306140952967        0.5692545008206258
O       -0.8259665060060170       -0.5373802238348502        0.4952301396237024       -0.2058946535748549
O       -1.0733094446904283       -0.7484273675836808       -0.1646946160552955       -0.9992971180892700
N       -0.6534708084567747       -0.4284919757668762        0.0183549660347714        0.6691943173322236
N       -0.7581079785109237       -2.1669445304617239       -0.0208316532420838        0.0628076875181509
N        0.5282074708757952        1.6207471065518433       -0.0046326613012660        0.7576134719858190
O        0.5154473846854385        1.2703350632810562        0.0741503449737713       -0.9235083265987739
N        0.5992546658948004        0.8563767533998717        0.0095602067412805        0.9955526175656415
O        0.5436666909557242        1.4226332594342825       -0.0500884329333665       -0.9936641819349231
O        0.4810629183847128       -0.1998703519633163       -0.1143035603302338       -0.9934394819660318
N        0.4858011665309874        0.2194115730471542        0.0518827290584693        0.8475065253219278
N        0.4546350207946643       -0.4799095528254912       -0.0192398998512120        0.9207393412409772
O        0.6829522079476247       -0.2969015106445484        0.2536135331022787       -0.6738758902636315
N        2.8499754155658694       -0.0235687186506403        0.0224949906960088        0.1207489421105395
N        1.1621913210171959       -0.7056001032077088        0.0752879662460201        0.4308753055723465
O        1.4202949463303400       -0.4374730892453302       -0.2097759972201889       -0.7095764258838037
N        1.5604797566115749       -0.2328339049057253       -0.0076343931731118        0.9977500474782615
O        1.5193051187090227       -0.4264312050009214        0.1241244810825989       -0.9963537733476465
O        1.8328986126507489       -1.8808438070472893       -0.3696493004034820       -0.1586318904925156
N        1.8251056609449947       -1.8351499531315534       -0.1997020879905775        0.3123697133706422

        RMSE         3.504487779E-01 kcal/mol

Coordinates in bohr
s                   x[bohr]                   y[bohr]                   z[bohr]                      q[e]
+       -3.6544591617467490        2.4478980433780984        0.0081080539097870        0.1158659338886357
-       -3.3562843481969171       -0.6358694504504980        0.8275100188169059       -0.2341991647481463
+       -6.2078493715753194       -1.2835893215363128        0.0123381988466916        0.0569852111266852
+       -3.9477099080600873       -1.0258247172886672       -0.0597718233697256        0.3189271149812888
-       -3.4725301986877364       -0.7114643583919861       -0.6403046520026082       -0.2877498234141676
+       -2.4120389737948682       -1.8323143144905698       -0.2143527948826071        0.5692545008206258
-       -1.5608504851526903       -1.0155014482850919        0.9358493329610383       -0.2058946535748549
-       -2.0282608983321362       -1.4143227495305108       -0.3112277186819382       -0.9992971180892700
+       -1.2348808589648155       -0.8097324811557085        0.0346858588477986        0.6691943173322236
+       -1.4326164529101144       -4.0949316916314658       -0.0393661193680440        0.0628076875181509
+        0.9981674573759951        3.0627681500112005       -0.0087544610913998        0.7576134719858190
-        0.9740543891389845        2.4005853571673352        0.1401238441086463       -0.9235083265987739
+        1.1324271979439064        1.6183175241344936        0.0180661724437757        0.9955526175656415
-        1.0273811494402392        2.6883872372981878       -0.0946534202974249       -0.9936641819349231
-        0.9090771648605788       -0.3777002258095302       -0.2160024241888878       -0.9934394819660318
+        0.9180311561714960        0.4146277818150059        0.0980441485618394        0.8475065253219278
+        0.8591356763437401       -0.9068976198311144       -0.0363581414000275        0.9207393412409772
-        1.2905926297977337       -0.5610625413528986        0.4792601192730398       -0.6738758902636315
+        5.3856729997073538       -0.0445384233776802        0.0425093716101786        0.1207489421105395
+        2.1962233021065405       -1.3333909491573472        0.1422736367476913        0.4308753055723465
-        2.6839684659361676       -0.8267043259316444       -0.3964191824409597       -0.7095764258838037
+        2.9488793643169662       -0.4399923129927127       -0.0144269122312463        0.9977500474782615
-        2.8710705753662471       -0.8058381888007040        0.2345612747106831       -0.9963537733476465
-        3.4636763936415282       -3.5542796800828249       -0.6985359402296688       -0.1586318904925156
+        3.4489498492087334       -3.4679308105654054       -0.3773822529842722        0.3123697133706422
