21
s                      x[A]                      y[A]                      z[A]                      q[e]
N 1.9007546397965649 -1.4358680573839766 -0.4190696704574259 0.0707249461841811
O 1.6294494326686455 -0.0394129196463587 0.2814684928063677 -0.3496602100029151
N 1.4914219649716858 -0.1139666213444936 -0.2419751971719308 0.9824851761690530
N 3.0661104961863317 0.5630213084658633 0.1883267754632620 0.1071394941056757
O 1.5507305439101426 0.0300892876850073 -0.3487630785913263 -0.8194842575378962
N 0.5394957312088670 0.5653426596502225 -0.0948634225806468 0.3116552922920345
N 0.8834789420889272 1.9101873322505478 0.1259176312725329 0.0918298459672651
N 1.3287551413452392 0.8452855102225416 0.0186133706655166 0.5593901217632046
O 1.0152191060325615 0.6824711199423551 -0.0140227882805598 -0.9963138680841535
N -0.7864435637495683 -0.8598018249078130 -0.1530515779662951 0.9989733053171830
O -0.7658308621278851 -0.9573224530364717 -0.1741994485989229 -0.8354521971080898
N -0.6420805884867129 -1.7270491195394735 -0.1245754001898010 0.2899344186932475
O -0.6213070765016657 -1.3410868102915501 -0.0927612728362064 -0.8678253524624289
N -0.4938282331566313 0.4087348014344949 -0.0695929038409426 0.9219570073558310
O -0.6201994618382476 0.2524509386426909 -0.2433584259503050 -0.9704818863270434
O -0.7644968494673091 0.2431613996630825 0.4147614477841573 -0.3320651923316272
N -0.6251300283611938 -0.3344988268555280 -0.0492310350971342 0.9769593393400061
O -1.4773835723411648 0.6586586501893044 -0.4642926726782215 -0.1970026432733326
O -1.4760787654957759 0.5387958946649050 0.5327867243226594 -0.1946060569702309
N -2.7662878657916350 0.1521191247420659 0.0167656431779727 0.1283355164991325
N -1.5771793712716877 1.9732254410674772 0.1657412978112056 0.1235072004109040
