21
s                      x[A]                      y[A]                      z[A]                      q[e]
N 0.0271699581216414 -0.0449182964638248 0.3787904061333931 0.0707249461841811
O 0.1027468817588206 0.2925994362180963 0.3144451170514861 -0.3496602100029151
N 0.3755351654071742 -0.1825100539768847 0.3121467702203984 0.9824851761690530
N 0.0334429749983596 -0.0108976768456325 -0.1884534430610877 0.1071394941056757
O 0.2562909626261649 -0.3283468338039287 0.3216572660429752 -0.8194842575378962
N 0.1011450571418218 0.1266339499499237 0.2905252237815922 0.3116552922920345
N 0.0295961777781845 -0.0163999420139044 0.2434243896439597 0.0918298459672651
N 0.0909058512936972 0.0401254892664996 -0.5503105658121757 0.5593901217632046
O 0.0471893563818030 0.0580123756899449 -0.1983177792744216 -0.9963138680841535
N 0.2258564489694362 0.0848576458573933 -0.4266151886228647 0.9989733053171830
O 0.2004594358589333 0.0991107975114809 -0.3289879491561402 -0.8354521971080898
N 0.0342289620960001 0.0069512613348391 0.4286944075997273 0.2899344186932475
O 0.0347231594310450 -0.0030855299824574 0.0414664399432950 -0.8678253524624289
N 0.0008142271878795 0.0793237775930391 -0.3513353163765850 0.9219570073558310
O 0.1207585264440847 0.2409379076183294 -0.1779920221611986 -0.9704818863270434
O 0.2584007558359774 -0.4191397099376956 -0.1997930931263475 -0.3320651923316272
N 0.0919597698438200 0.0137536168907583 0.3957981500335689 0.9769593393400061
O 0.1996971918912706 -0.5137349737154031 -0.0954790042495586 -0.1970026432733326
O 0.2308080716881525 0.4902353330588883 -0.0748770167600048 -0.1946060569702309
N 0.0217689141844009 -0.0004982600705105 0.1845548535570647 0.1283355164991325
N 0.0372756276289428 0.0041016497684460 -0.1491706994399375 0.1235072004109040
