25
s                      x[A]                      y[A]                      z[A]                      q[e]
N -1.9267785335453209 1.2914737178296483 0.1872121667383377 0.1158659338886357
O -1.7561857160329466 -0.3744303876400832 0.4554297833890388 -0.2341991647481463
N -3.2849382666376350 -0.6759389274956176 0.0473543321657446 0.0569852111266852
N -2.0921225462866126 -0.5391948892891421 -0.0186645183373428 0.3189271149812888
O -1.8548878235785289 -0.3441134577662688 -0.3208121957073057 -0.2877498234141676
N -1.2782595835832942 -0.9670422930332795 -0.1901974835943215 0.5692545008206258
O -0.8427078768754015 -0.5312629560144753 0.4332685312119302 -0.2058946535748549
O -1.0733092068242003 -0.7472591508368736 -0.2372955659590300 -0.9992971180892700
N -0.6563654205136273 -0.4258628329923055 -0.0407051375487468 0.6691943173322236
N -0.7679655451338543 -2.1548097348711717 -0.2177187828627226 0.0628076875181509
N 0.5386360087944798 1.6295413012490452 -0.0358056212899376 0.7576134719858190
O 0.5216784836055629 1.2757375512643754 0.0450202410435339 -0.9235083265987739
N 0.6065728331663685 0.8591131695848829 -0.0164365264705268 0.9955526175656415
O 0.5549236763349787 1.4296003285686629 -0.0817084869260842 -0.9936641819349231
O 0.4857325933874804 -0.2026464039536618 -0.1422577693215820 -0.9934394819660318
N 0.4872645716698540 0.2191638909306404 0.0251525466994926 0.8475065253219278
N 0.4550772646832215 -0.4832839051477920 -0.0458211515606695 0.9207393412409772
O 0.6759272235811536 -0.2987437021047434 0.2367545648382852 -0.6738758902636315
N 2.8466609810385961 -0.0294277289154354 0.1247489303785657 0.1207489421105395
N 1.1563864044067560 -0.7084047968936387 0.0958299845760586 0.4308753055723465
O 1.4315819659850824 -0.4432482635189191 -0.1805130868337222 -0.7095764258838037
N 1.5628313368035753 -0.2351298917589798 0.0285224374582471 0.9977500474782615
O 1.5142893033120493 -0.4286304579562622 0.1622973909203315 -0.9963537733476465
O 1.8450205540849791 -1.8918469890908887 -0.3023506170168792 -0.1586318904925156
N 1.8298503732999116 -1.8451141520361112 -0.1343869348207966 0.3123697133706422
