25
s                      x[A]                      y[A]                      z[A]                      q[e]
N       -1.9267785335453209        1.2914737178296483        0.1872121667383377        0.1158659338886357
O       -1.7561857160329466       -0.3744303876400832        0.4554297833890388       -0.2341991647481463
N       -3.2849382666376350       -0.6759389274956176        0.0473543321657446        0.0569852111266852
N       -2.0921225462866126       -0.5391948892891421       -0.0186645183373428        0.3189271149812888
O       -1.8548878235785287       -0.3441134577662688       -0.3208121957073056       -0.2877498234141676
N       -1.2782595835832942       -0.9670422930332795       -0.1901974835943215        0.5692545008206258
O       -0.8427078768754014       -0.5312629560144753        0.4332685312119302       -0.2058946535748549
O       -1.0733092068242003       -0.7472591508368736       -0.2372955659590300       -0.9992971180892700
N       -0.6563654205136273       -0.4258628329923055       -0.0407051375487468        0.6691943173322236
N       -0.7679655451338543       -2.1548097348711717       -0.2177187828627226        0.0628076875181509
N        0.5386360087944798        1.6295413012490452       -0.0358056212899376        0.7576134719858190
O        0.5216784836055629        1.2757375512643752        0.0450202410435339       -0.9235083265987739
N        0.6065728331663685        0.8591131695848829       -0.0164365264705268        0.9955526175656415
O        0.5549236763349787        1.4296003285686629       -0.0817084869260842       -0.9936641819349231
O        0.4857325933874804       -0.2026464039536618       -0.1422577693215820       -0.9934394819660318
N        0.4872645716698540        0.2191638909306404        0.0251525466994926        0.8475065253219278
N        0.4550772646832215       -0.4832839051477920       -0.0458211515606695        0.9207393412409772
O        0.6759272235811536       -0.2987437021047434        0.2367545648382852       -0.6738758902636315
N        2.8466609810385961       -0.0294277289154354        0.1247489303785657        0.1207489421105395
N        1.1563864044067560       -0.7084047968936387        0.0958299845760586        0.4308753055723465
O        1.4315819659850824       -0.4432482635189191       -0.1805130868337222       -0.7095764258838037
N        1.5628313368035753       -0.2351298917589798        0.0285224374582471        0.9977500474782615
O        1.5142893033120493       -0.4286304579562622        0.1622973909203315       -0.9963537733476465
O        1.8450205540849791       -1.8918469890908887       -0.3023506170168792       -0.1586318904925156
N        1.8298503732999116       -1.8451141520361112       -0.1343869348207966        0.3123697133706422

        RMSE         3.564171940E-01 kcal/mol

Coordinates in bohr
s                   x[bohr]                   y[bohr]                   z[bohr]                      q[e]
+       -3.6410837328119152        2.4405316249248377        0.3537797224890038        0.1158659338886357
-       -3.3187100287433218       -0.7075708856887670        0.8606375599818662       -0.2341991647481463
+       -6.2076336629812916       -1.2773394505024132        0.0894867186472155        0.0569852111266852
+       -3.9535386333771663       -1.0189306690030331       -0.0352708279211634        0.3189271149812888
-       -3.5052299800099567       -0.6502801912625471       -0.6062471875935852       -0.2877498234141676
+       -2.4155605302141954       -1.8274450855676330       -0.3594211537445260        0.5692545008206258
-       -1.5924870910605449       -1.0039414874685069        0.8187588627699249       -0.2058946535748549
-       -2.0282604488301108       -1.4121151398238718       -0.4484236304480803       -0.9992971180892700
+       -1.2403508829917151       -0.8047641213670436       -0.0769215618662212        0.6691943173322236
+       -1.4512445540909074       -4.0720002513769096       -0.4114288719785669        0.0628076875181509
+        1.0178745379312610        3.0793867694828658       -0.0676628179898441        0.7576134719858190
-        0.9858294595586555        2.4107945798518853        0.0850759256743748       -0.9235083265987739
+        1.1462565298274590        1.6234886012894350       -0.0310605334831336        0.9955526175656415
-        1.0486537688053132        2.7015530898592974       -0.1544066624158507       -0.9936641819349231
-        0.9179015717107061       -0.3829462037813152       -0.2688282232363466       -0.9934394819660318
+        0.9207965910945414        0.4141597304486211        0.0475314246198292        0.8475065253219278
+        0.8599713961737707       -0.9132742215710655       -0.0865894272027599        0.9207393412409772
-        1.2773173333094807       -0.5645437786833243        0.4474012864963068       -0.6738758902636315
+        5.3794096261900464       -0.0556103481443890        0.2357413128592953        0.1207489421105395
+        2.1852535995316882       -1.3386910520895554        0.1810924254555986        0.4308753055723465
-        2.7052978418562899       -0.8376178236355174       -0.3411202961767223       -0.7095764258838037
+        2.9533232068418984       -0.4443310993330154        0.0538995952265865        0.9977500474782615
-        2.8615920579701126       -0.8099941745669019        0.3066976197157925       -0.9963537733476465
-        3.4865835430610628       -3.5750726806537831       -0.5713598600250909       -0.1586318904925156
+        3.4579160561036026       -3.4867604175546063       -0.2539545016510577        0.3123697133706422
