21
s                      x[A]                      y[A]                      z[A]                      q[e]
N       -2.0118068825745712        1.6922736673069458        0.1107967702103322        0.0690680479201058
O       -1.8877921230197787       -0.2137165792428664        0.3451018548011746       -0.3117950550350966
N       -1.9735243618067837       -0.2539047441959889       -0.0085911435331259        0.5776243102962968
N       -3.3477019317965007       -0.3941536361796569       -0.0175161120421859        0.0604184539076988
O       -1.8810599420559369       -0.2047025293213227       -0.3215173517763061       -0.3968494342195521
O       -0.9734066364816885       -0.1553638118507003        0.0589134512664084       -0.9828651838991298
N       -0.7295743286620682        0.0005178165926790        0.0601366430165600        0.7759263489545838
N       -1.0394500693410498       -1.3235592223069272       -0.0691565098183228        0.9970342621901004
O       -1.1201428760350243       -1.3506228815625729       -0.3535878154940905       -0.3970377457969525
O       -1.1604177751066309       -1.3866131229057961        0.1950133150530466       -0.3893757401670396
N        1.7893865636093051       -1.2205511099753514       -0.4154018705590630        0.1691966627363242
O        1.4117774864963739       -0.9023728173400881       -0.2866146634509122       -0.6800109224217911
O        0.3619059368815501        0.3674054933308035       -0.3334501740173114       -0.9821368279659007
N        0.2888384223772384        0.4334460590771499       -0.2241908446369978        0.8921713087406896
O        0.5842156683390907        0.3880585656312373        0.3272872299351912       -0.3335771210350215
N        0.8225996746842675       -0.2204413580550143       -0.1117139302517099        0.9988617281482304
N        2.3143211733158151        1.5925739739286235        0.4185080364158089        0.0655379221577991
N        1.1652377089289749        0.9367432080584523        0.0315283242419739        0.9908754307264420
O        0.9958797719715912        0.9932437074651644       -0.2968463180816582       -0.6595771554465193
O        1.0696400126183527        1.0043734722840418        0.4085771592160515       -0.5578053818499882
N       -0.0310120551001223        2.2088031694569672        0.1084096392490196        0.0943160920587207

        RMSE         8.667289791E+00 kcal/mol

Coordinates in bohr
s                   x[bohr]                   y[bohr]                   z[bohr]                      q[e]
+       -3.8017640253770359        3.1979337605342644        0.2093755512828123        0.0690680479201058
-       -3.5674100943039742       -0.4038658032387228        0.6521479909617337       -0.3117950550350966
+       -3.7294205457337664       -0.4798104284848470       -0.0162349083821062        0.5776243102962968
+       -6.3262398007614875       -0.7448424237328976       -0.0331006545425652        0.0604184539076988
-       -3.5546881160552921       -0.3868317176058005       -0.6075797394397006       -0.3968494342195521
-       -1.8394719516534777       -0.2935950542049828        0.1113302879990185       -0.9828651838991298
+       -1.3786956693360661        0.0009785315433810        0.1136417854057245        0.7759263489545838
+       -1.9642759521427329       -2.5011644409840459       -0.1306868633491655        0.9970342621901004
-       -2.1167632570888548       -2.5523073449299281       -0.6681841325827451       -0.3970377457969525
-       -2.1928717860646469       -2.6203190442577493        0.3685217562678806       -0.3893757401670396
+        3.3814505377957098       -2.3065073199769723       -0.7849957673595124        0.1691966627363242
-        2.6678727995653841       -1.7052374878305492       -0.5416232174624916       -0.6800109224217911
-        0.6839031038833571        0.6942957593839412       -0.6301295053789724       -0.9821368279659007
+        0.5458255128022904        0.8190943418148273       -0.4236592961989917        0.8921713087406896
-        1.1040076113621853        0.7333244096810403        0.6184832289372542       -0.3335771210350215
+        1.5544880960439709       -0.4165737934479640       -0.2111087325742298        0.9988617281482304
+        4.3734331839151102        3.0095286452571139        0.7908655701290103        0.0655379221577991
+        2.2019801409317084        1.7701881131132353        0.0595798980119635        0.9908754307264420
-        1.8819400229097003        1.8769585829435138       -0.5609582425248740       -0.6595771554465193
-        2.0213266766799420        1.8979907902919477        0.7720989320359152       -0.5578053818499882
+       -0.0586042907268389        4.1740330553168850        0.2048645275403307        0.0943160920587207
