21
s                      x[A]                      y[A]                      z[A]                      q[e]
N -2.0134403451077540 1.6905796678293679 0.1111725008571677 0.0690680479201058
O -1.8760888772180879 -0.1990055643177653 0.3476898388224767 -0.3117950550350966
N -1.9983140747255912 -0.2825812974138502 -0.0084910861288476 0.5776243102962968
N -3.3489139478692733 -0.3985260850190562 -0.0173318221567378 0.0604184539076988
O -1.8667476844617166 -0.1848999251791079 -0.3242862350239633 -0.3968494342195521
O -0.9424405857553604 -0.1145381284209638 0.0603495900933968 -0.9828651838991298
N -0.7548075632488078 -0.0303979476920531 0.0594266454561071 0.7759263489545838
N -1.0724420930769301 -1.3748863628196506 -0.0731018242460366 0.9970342621901004
O -1.1066612480690539 -1.3294006821223128 -0.3526579348006001 -0.3970377457969525
O -1.1467565160449764 -1.3661929731904490 0.1975733109026002 -0.3893757401670396
N 1.7814932264017327 -1.2255095912153855 -0.4156077895132656 0.1691966627363242
O 1.4404933614079782 -0.8823895091407891 -0.2864181671718068 -0.6800109224217911
O 0.3910984473123508 0.4010563816914590 -0.3403700606500297 -0.9821368279659007
N 0.2621511226394548 0.4039053663246684 -0.2196468286365191 0.8921713087406896
O 0.5937290680081500 0.3980079415596244 0.3272776631777322 -0.3335771210350215
N 0.7897530695516964 -0.2533441159902865 -0.1111822706327512 0.9988617281482304
N 2.3144613855501182 1.5934508599266521 0.4196171083147066 0.0655379221577991
N 1.1479174113732897 0.9167181471433391 0.0392338044777881 0.9908754307264420
O 1.0092319078839098 1.0128477347339604 -0.3052259740212959 -0.6595771554465193
O 1.0796267705708131 1.0174554152180837 0.4068298273731487 -0.5578053818499882
N -0.0339350778490258 2.2076234402933581 0.1092137219773077 0.0943160920587207
