21
s                      x[A]                      y[A]                      z[A]                      q[e]
N       -1.9926591518648022        1.4116568992608742        0.0553704828242039        0.0707249461841811
O       -1.6059890217014594       -0.1097233777317557        0.3329623868443472       -0.3496602100029151
N       -1.5025529195483425        0.1279673621901468       -0.1490978509153841        0.9824851761690530
N       -3.0254210417853868       -0.7185077167701224        0.1328885608129120        0.1071394941056757
O       -1.5605551169262863        0.0190710772607501       -0.2924016789928011       -0.8194842575378962
N       -0.4778713004022669       -0.6545898387056551       -0.1552691979553746        0.3116552922920345
N       -0.7092798817631287       -2.0217679815493006       -0.0194264451171610        0.0918298459672651
N       -1.2317152277091989       -1.0206998174606496       -0.0172694360371006        0.5593901217632046
O       -0.9378961787692609       -0.8253347429738229       -0.0532745904842227       -0.9963138680841535
N        0.7075038870086725        0.8983953508999740       -0.1429323796774582        0.9989733053171830
O        0.6774703415171393        0.9946181406716234       -0.1577955259879618       -0.8354521971080898
N        0.4832982339336026        1.7451708743091965       -0.0593187844985305        0.2899344186932475
O        0.4995232346890799        1.3582749999960395       -0.0508412068669355       -0.8678253524624289
N        0.5358752704551126       -0.3944479825224589       -0.1332262256034056        0.9219570073558310
O        0.6439310124097082       -0.2165451541103682       -0.2992712728846588       -0.9704818863270434
O        0.7987686114522036       -0.2325546337119347        0.3575311527770695       -0.3320651923316272
N        0.5972556974079514        0.3559802905620610       -0.0689971345488027        0.9769593393400061
O        1.5496970281686837       -0.4898673078386133       -0.5229609883583362       -0.1970026432733326
O        1.4978351222634620       -0.5340116595993818        0.4795450407108769       -0.1946060569702309
N        2.7693366004607771        0.0348950213380407        0.0887253335028842        0.1283355164991325
N        1.7399556031819523       -1.8756930001796874       -0.1041220348011427        0.1235072004109040

        RMSE         3.280561438E+00 kcal/mol

Coordinates in bohr
s                   x[bohr]                   y[bohr]                   z[bohr]                      q[e]
+       -3.7655800584115546        2.6676449227160637        0.1046350479721121        0.0707249461841811
-       -3.0348794115077067       -0.2073471334731764        0.6292077212145588       -0.3496602100029151
+       -2.8394135069534370        0.2418232675366447       -0.2817541041244177        0.9824851761690530
+       -5.7172171831716847       -1.3577828037235540        0.2511229851426512        0.1071394941056757
-       -2.9490217746724992        0.0360391129402642       -0.5525590919204296       -0.8194842575378962
+       -0.9030458809766697       -1.2369955196613023       -0.2934162598551546        0.3116552922920345
+       -1.3403447228294236       -3.8205877743478536       -0.0367106608626718        0.0918298459672651
+       -2.3276044449263109       -1.9288431113054259       -0.0326345044512319        0.5593901217632046
-       -1.7723669119873380       -1.5596566260456548       -0.1006743854611026       -0.9963138680841535
+        1.3369885791432516        1.6977211655855338       -0.2701030520503503        0.9989733053171830
-        1.2802334035877752        1.8795558852814558       -0.2981903279398110       -0.8354521971080898
+        0.9133012990519579        3.2978949945701683       -0.1120962567972759        0.2899344186932475
-        0.9439621068651565        2.5667677530487474       -0.0960759568662539       -0.8678253524624289
+        1.0126574985658057       -0.7453986577068233       -0.2517610791188942        0.9219570073558310
-        1.2168532571431345       -0.4092110350636544       -0.5655407429691587       -0.9704818863270434
-        1.5094539132569020       -0.4394645669217188        0.6756359600678823       -0.3320651923316272
+        1.1286496949703411        0.6727052552231954       -0.1303856877386014        0.9769593393400061
-        2.9285029606747175       -0.9257150496303199       -0.9882530422959950       -0.1970026432733326
-        2.8304981621695844       -1.0091357844440443        0.9062087917650818       -0.1946060569702309
+        5.2332877240772975        0.0659420334709039        0.1676665807103590        0.1283355164991325
+        3.2880395604696693       -3.5445460657779302       -0.1967621293995485        0.1235072004109040
