21
s                      x[A]                      y[A]                      z[A]                      q[e]
N 1.9744458653806436 1.4265823261183976 0.1326857738702341 0.0707249461841811
O 1.6417408071312480 -0.0750056612614379 -0.2610822813103383 -0.3496602100029151
N 1.4833280421482691 0.1259392980146997 0.2227611924848334 0.9824851761690530
N 3.0386810190088940 -0.6898532853685773 0.0281407052326243 0.1071394941056757
O 1.5265622366132152 0.0069385346010609 0.3632185370762597 -0.8194842575378962
N 0.4860337835555819 -0.6509027405268085 0.0725513339903185 0.3116552922920345
N 0.7355232761397177 -2.0112013252114505 -0.1504927439264486 0.0918298459672651
N 1.2457632517371962 -1.0066814429570661 -0.0324284046131724 0.5593901217632046
O 0.9485443944989276 -0.8149154397356693 -0.0063464586266651 -0.9963138680841535
N -0.7195365195098020 0.8862166874631324 0.0608137452849146 0.9989733053171830
O -0.6907664763167427 0.9827998421738986 0.0758380950300503 -0.8354521971080898
N -0.5061922721752780 1.7359275435423864 -0.0214291170488684 0.2899344186932475
O -0.5174065506869280 1.3488658230665775 -0.0304292299552119 -0.8678253524624289
N -0.5299408884398626 -0.4058061935441508 0.0495710754472874 0.9219570073558310
O -0.6407646283272089 -0.2297225290258088 0.2157308155174603 -0.9704818863270434
O -0.7945761646356504 -0.2470622240752831 -0.4412788938046440 -0.3320651923316272
N -0.6021343197538551 0.3437407508517286 -0.0136982901030381 0.9769593393400061
O -1.4878811861860246 -0.5408331131967885 0.5500137694576896 -0.1970026432733326
O -1.5472914137475415 -0.5082088404199869 -0.4525144351747268 -0.1946060569702309
N -2.7683331662946098 0.0192050779927632 0.1062322979258894 0.1283355164991325
N -1.7236504067268166 -1.8937753776121187 0.0502938599268192 0.1235072004109040
