25
s                      x[A]                      y[A]                      z[A]                      q[e]
N 1.7310005618240050 0.6092595264491136 -1.5411270071040648 0.1158659338886357
O 1.7873188333546757 -0.3847661683280478 -0.1845937474429399 -0.2341991647481463
N 3.3816155303346283 -0.0956832653709355 0.0399396272942168 0.0569852111266852
N 2.1816457658827035 -0.0660354129570659 0.1198831780289646 0.3189271149812888
O 1.9225326824541600 0.3147582120751573 0.1555682866874951 -0.2877498234141676
N 1.4860653004129807 -0.1701909171717966 0.5397785342192324 0.5692545008206258
O 0.7207853484630272 -0.2957795840149757 0.9228434387383846 -0.2058946535748549
O 1.2203713043211919 -0.2108407741113486 0.3837008520615515 -0.9992971180892700
N 0.6700607935793398 -0.2847189018017529 0.4242848854692786 0.6691943173322236
N 1.1143986550815941 -0.7045608556952947 1.8238753106765151 0.0628076875181509
N -1.2916145303125293 -1.3985062617325918 -0.2443341979005161 0.7576134719858190
O -1.1419994233560353 -1.1134207285693103 -0.0992441185392721 -0.9235083265987739
N -0.9878013504347125 -0.7055727217785315 -0.1069342494342052 0.9955526175656415
O -1.2022650543963898 -1.2243688473881318 -0.2522259084095348 -0.9936641819349231
O -0.3530901361569004 0.1586667367382771 -0.0064968634696385 -0.9934394819660318
N -0.5987355925462327 -0.2113924483327557 0.0782813720725605 0.8475065253219278
N -0.2244439585877488 0.3714690179171439 0.1463786325501429 0.9207393412409772
O -0.5808684424243700 0.3268914332312146 0.3155011919534493 -0.6738758902636315
N -2.4764512246458410 1.1919155485452508 -0.2976011149374548 0.1207489421105395
N -0.7433241419837322 0.9108968942782643 0.1863328211909838 0.4308753055723465
O -1.0131179182654568 0.8474558902279365 -0.1903952445322283 -0.7095764258838037
N -1.2787184615725673 0.7185752784375724 -0.0629278974134816 0.9977500474782615
O -1.1874698534982959 0.8543362662928808 0.1101663327058030 -0.9963537733476465
O -0.6297128371483929 2.3051383171377480 -0.1073461644012404 -0.1586318904925156
N -0.7046611230636446 2.2404700440740477 0.0461939835570805 0.3123697133706422
