21
s                      x[A]                      y[A]                      z[A]                      q[e]
N 1.9615041867723912 1.4149096734638513 -0.8076549302174058 0.0707249461841811
O 1.6559537622033860 -0.0668006484317205 -0.3646074684915303 -0.3496602100029151
N 1.5440927869127550 0.3326580129355330 -0.0076592309635300 0.9824851761690530
N 3.1121917299887953 -0.4628610671895276 0.0603134305252775 0.1071394941056757
O 1.6092185930028435 0.2899764566143878 0.1646435348464131 -0.8194842575378962
N 0.6521100297161639 -0.3040713380367581 0.0489579808598332 0.3116552922920345
N 0.8767575722468071 -1.7367999718980229 0.7188100401148885 0.0918298459672651
N 1.4101795305747746 -0.6360042884680517 0.2218197742293112 0.5593901217632046
O 1.0733729931764215 -0.5423396097946133 0.1619519851932655 -0.9963138680841535
N -1.2723205759919134 -0.4770990306468219 -0.1804595656504409 0.9989733053171830
O -1.3179869892953233 -0.5641502747610334 -0.2071733324433511 -0.8354521971080898
N -1.7274596336724779 -1.2297624911731535 -0.2045087206585500 0.2899344186932475
O -1.4650263106202852 -0.9511462299748954 -0.1446509781549812 -0.8678253524624289
N -0.2313626207934487 0.2967461612019014 0.0089038407529773 0.9219570073558310
O -0.4131681860032972 0.2636066280908860 -0.1826730005648586 -0.9704818863270434
O -0.5864319503382912 0.3391293874347376 0.4651985118616161 -0.3320651923316272
N -0.8148552099818281 -0.1817383025144789 -0.0301891974953456 0.9769593393400061
O -0.7560277149333767 1.1361390457513107 -0.4378441917023065 -0.1970026432733326
O -0.9432254705967215 1.0172353623374231 0.5421377662044443 -0.1946060569702309
N -2.1107584640026524 1.5790652088644945 -0.0926826119331482 0.1283355164991325
N -0.0524320444440404 2.1797315678510176 0.3036037564836315 0.1235072004109040
