21
s                      x[A]                      y[A]                      z[A]                      q[e]
N       -2.0676207152678612        1.5267667371521512        0.6161527923161342        0.0690680479201058
O       -1.8008462341835025       -0.3672175245738880        0.4178306921782441       -0.3117950550350966
N       -1.9754299056330005       -0.3639791175792860        0.0773294200908157        0.5776243102962968
N       -3.3104164935889395       -0.5734261745922046        0.1491554233851579        0.0604184539076988
O       -1.8872429198051974       -0.2174788009029168       -0.2320936470618603       -0.3968494342195521
O       -0.9297009845635661       -0.1326714590561087       -0.1219601145969609       -0.9828651838991298
N       -0.7679863711551530        0.0194332938460657       -0.1129215657886697        0.7759263489545838
N       -1.0314663782049975       -1.3296682695587267       -0.3312582432777961        0.9970342621901004
O       -1.0765737393712085       -1.2657243052139875       -0.6008354023205906       -0.3970377457969525
O       -1.0363965092681637       -1.4165797398330942       -0.0712960229903516       -0.3893757401670396
N        1.7767915332408901       -1.2696055211986794        0.0679380397913580        0.1691966627363242
O        1.4578862984016419       -0.9526154655037741        0.0545837419376931       -0.6800109224217911
O        0.4173062561184334        0.4097928114954499       -0.4343349837550138       -0.9821368279659007
N        0.2524384512241112        0.4968910007797933       -0.3245522367902867        0.8921713087406896
O        0.5523184719533886        0.4805834769115368        0.2498850337440501       -0.3335771210350215
N        0.7925774132427985       -0.1163091402893651       -0.1394312088582658        0.9988617281482304
N        2.3024468963748186        1.6686219283301413        0.0692774136668285        0.0655379221577991
N        1.0949613458244059        1.0885124844838883       -0.0175315485393743        0.9908754307264420
O        0.9916170353445276        1.0683181746902843       -0.3794537789016956       -0.6595771554465193
O        0.9975444371373962        1.1147153861790897        0.3410788872905227       -0.5578053818499882
N       -0.1273383132394270        2.2642123612401424       -0.1445080582160761        0.0943160920587207

        RMSE         7.331267581E+00 kcal/mol

Coordinates in bohr
s                   x[bohr]                   y[bohr]                   z[bohr]                      q[e]
+       -3.9072368831794786        2.8851709906764249        1.1643600289135900        0.0690680479201058
-       -3.4031061766689108       -0.6939405499132282        0.7895855750273557       -0.3117950550350966
+       -3.7330215016853732       -0.6878208476106634        0.1461314254121179        0.5776243102962968
+       -6.2557805340815156       -1.0836184231482309        0.2818629003246563        0.0604184539076988
-       -3.5663722506411943       -0.4109753717994834       -0.4385934284055859       -0.3968494342195521
-       -1.7568802393936358       -0.2507127222809372       -0.2304712148177076       -0.9828651838991298
+       -1.4512839095674448        0.0367236030846092       -0.2133908329984540        0.7759263489545838
+       -1.9491889624253489       -2.5127088671774276       -0.6259873565953163        0.9970342621901004
-       -2.0344295212715995       -2.3918722871898299       -1.1354143568651851       -0.3970377457969525
-       -1.9585055598973451       -2.6769477431568514       -0.1347299572861094       -0.3893757401670396
+        3.3576493798575813       -2.3992067224346472        0.1283842887061227        0.1691966627363242
-        2.7550058260365899       -1.8001823326776523        0.1031483231649068       -0.6800109224217911
-        0.7885945345039993        0.7743961819077666       -0.8207741660021509       -0.9821368279659007
+        0.4770395363483146        0.9389879056784615       -0.6133148409383801        0.8921713087406896
-        1.0437306460232652        0.9081711517830900        0.4722142766270425       -0.3335771210350215
+        1.4977542442527016       -0.2197924210343529       -0.2634867980836318        0.9988617281482304
+        4.3509940525587876        3.1532384514772880        0.1309153385103550        0.0655379221577991
+        2.0691770615708434        2.0569904798162124       -0.0331298252945876        0.9908754307264420
-        1.8738846181395925        2.0188287650136503       -0.7170637193942326       -0.6595771554465193
-        1.8850857841636617        2.1065067877124379        0.6445456841549867       -0.5578053818499882
+       -0.2406345373002776        4.2787412526200548       -0.2730806529500998        0.0943160920587207
