25
s                      x[A]                      y[A]                      z[A]                      q[e]
N       -2.0059335691939153        1.2019512108639547        0.0715461610179303        0.1158659338886357
O       -1.6396905788419360       -0.3943230325603237        0.6141650774404184       -0.2341991647481463
N       -3.1762993719729757       -0.8472538155524062        0.5030656920118036        0.0569852111266852
N       -2.0241865433949635       -0.6447609400403594        0.2219978756251838        0.3189271149812888
O       -1.8504131875485756       -0.4777535540871380       -0.1353733122804097       -0.2877498234141676
N       -1.2172481780483484       -1.0275913251056903       -0.0041734677260292        0.5692545008206258
O       -0.7313052223394566       -0.5546471598045475        0.4433653274734040       -0.2058946535748549
O       -1.0454293102870456       -0.7976895707427718       -0.1047718167189082       -0.9992971180892700
N       -0.6259026813247742       -0.4453740135435566       -0.0537793839536886        0.6691943173322236
N       -0.6087963164598867       -2.1818621044535913        0.0289704073667086        0.0628076875181509
N        0.4172690154394791        1.6878116845986018       -0.2454754156788605        0.7576134719858190
O        0.4321662608895433        1.3333025962548783       -0.1611321112447603       -0.9235083265987739
N        0.5379362839622702        0.9239086325944389       -0.2314782724054436        0.9955526175656415
O        0.4351247683190678        1.4867196445286077       -0.2923805000549012       -0.9936641819349231
O        0.4748058469389986       -0.1456049094758744       -0.3320823194101372       -0.9934394819660318
N        0.4728223562989867        0.2789394827377903       -0.1684458516074969        0.8475065253219278
N        0.4816889060488128       -0.4252315678806509       -0.2296400079088851        0.9207393412409772
O        0.7274116630907771       -0.2213349673855677        0.0139618284814012       -0.6738758902636315
N        2.8203285600120571       -0.0071814716907947        0.3595806979855796        0.1207489421105395
N        1.2097481927188600       -0.5978887382176803       -0.2206237463303606        0.4308753055723465
O        1.4692343186738417       -0.2964078414349728       -0.2308328772052068       -0.7095764258838037
N        1.5652612784100040       -0.1913643365294688        0.0608995539588707        0.9977500474782615
O        1.5155394937949440       -0.4254458201857818        0.0942982330367777       -0.9963537733476465
O        1.9961503601216302       -1.5475195175809175       -0.8879299673754736       -0.1586318904925156
N        1.9606718561248206       -1.5753619069896039       -0.7185995368454943        0.3123697133706422

        RMSE         3.996811615E+00 kcal/mol

Coordinates in bohr
s                   x[bohr]                   y[bohr]                   z[bohr]                      q[e]
+       -3.7906650716386094        2.2713586046952861        0.1352026496517953        0.1158659338886357
-       -3.0985661245046754       -0.7451625364990015        1.1606037921829888       -0.2341991647481463
+       -6.0023359054926244       -1.6010776701432099        0.9506563810162268        0.0569852111266852
+       -3.8251581938536381       -1.2184215930690154        0.4195151853650474        0.3189271149812888
-       -3.4967741434022392       -0.9028233726887942       -0.2558184849060512       -0.2877498234141676
+       -2.3002656832239059       -1.9418661733460516       -0.0078867109956324        0.5692545008206258
-       -1.3819665843386169       -1.0481312282936364        0.8378390424486568       -0.2058946535748549
-       -1.9755750799687883       -1.5074148218378562       -0.1979900392654001       -0.9992971180892700
+       -1.1827846488935314       -0.8416349089932675       -0.1016283068683129        0.6691943173322236
+       -1.1504583042967396       -4.1231218209323481        0.0547461356660252        0.0628076875181509
+        0.7885241598200496        3.1895018352389655       -0.4638813061659628        0.7576134719858190
-        0.8166758737443935        2.5195767492835941       -0.3044955602694007       -0.9235083265987739
+        1.0165522496352029        1.7459342805497291       -0.4374305388404106        0.9955526175656415
-        0.8222666425263272        2.8094929534970854       -0.5525190695281709       -0.9936641819349231
-        0.8972530134807564       -0.2751534014314820       -0.6275446347919674       -0.9934394819660318
+        0.8935047593987248        0.5271192279512952       -0.3183165265076795        0.8475065253219278
+        0.9102601101036427       -0.8035712031934599       -0.4339567223957624        0.9207393412409772
-        1.3746088237053693       -0.4182624703458636        0.0263840320404650       -0.6738758902636315
+        5.3296485622296403       -0.0135710146733305        0.6795090391937109        0.1207489421105395
+        2.2860927650062215       -1.1298459687269666       -0.4169184573368631        0.4308753055723465
-        2.7764504764171907       -0.5601296417502295       -0.4362109186692781       -0.7095764258838037
+        2.9579151309789036       -0.3616261862206411        0.1150834781448067        0.9977500474782615
-        2.8639545755874378       -0.8039760813719052        0.1781978345541093       -0.9963537733476465
-        3.7721774858638963       -2.9243880620285547       -1.6779444569263495       -0.1586318904925156
+        3.7051328299689654       -2.9770025526893198       -1.3579563185188257        0.3123697133706422
