21
s                      x[A]                      y[A]                      z[A]                      q[e]
N        1.9144307436966870        1.0315715716841702       -1.6451347688217222        0.0690680479201058
O        1.8738479752173087       -0.3007384859408527       -0.2683145668645235       -0.3117950550350966
N        2.0384159197359537       -0.0660718055549870       -0.0147795541672793        0.5776243102962968
N        3.3947673751596574       -0.1039718936741948       -0.0067996760045848        0.0604184539076988
O        1.9260678465134611        0.2316033614480570        0.1393286128283154       -0.3968494342195521
O        0.7025915862193982       -0.7378496526414037        0.4191313594332115       -0.9828651838991298
N        0.4920948927709866       -0.7688160315177741        0.3550892417574605        0.7759263489545838
N        1.2064350366570460       -0.6560883931724116        0.9588979608977815        0.9970342621901004
O        1.2370740659607797       -0.4328799765647969        1.1263333273050327       -0.3970377457969525
O        1.2278925815581310       -0.8857048443907392        0.8106612416577448       -0.3893757401670396
N       -0.8905902562184016        1.7380426965774010        0.0853003908412729        0.1691966627363242
O       -0.8007553626613011        1.2986723386343182        0.0983254351955226       -0.6800109224217911
O       -0.5244503889437417       -0.4034415445268264       -0.3351718454643696       -0.9821368279659007
N       -0.4742810029167882       -0.5678168283161128       -0.2037049751765480        0.8921713087406896
O       -0.8937240536736515       -0.3986763885855024        0.2606560683722800       -0.3335771210350215
N       -0.6511632075412745        0.2380465135439608       -0.0576527029800287        0.9988617281482304
N       -2.8329881244865622       -0.4433368976112955       -0.6098798995195571        0.0655379221577991
N       -1.5495127780878000       -0.6137409961601031       -0.2552849250327280        0.9908754307264420
O       -1.3376421512630818       -0.6481224449938682       -0.5651305494201498       -0.6595771554465193
O       -1.6039713169644716       -0.6937462190138388        0.1044532056971586       -0.5578053818499882
N       -1.1374423383743419       -2.2637097841389324       -0.2697984419032643        0.0943160920587207

        RMSE         7.709057478E+00 kcal/mol

Coordinates in bohr
s                   x[bohr]                   y[bohr]                   z[bohr]                      q[e]
+        3.6177497917432886        1.9493877492911693       -3.1088541525414328        0.0690680479201058
-        3.5410594739044012       -0.5683133738130610       -0.5070410468447913       -0.3117950550350966
+        3.8520478180741788       -0.1248576171134286       -0.0279293096325268        0.5776243102962968
+        6.4151805986911006       -0.1964784037894494       -0.0128495253905126        0.0604184539076988
-        3.6397407289607857        0.4376669228722457        0.2632929196854663       -0.3968494342195521
-        1.3277056760056529       -1.3943337652564440        0.7920434799195951       -0.9828651838991298
+        0.9299245750737020       -1.4528517404299468        0.6710214170180838        0.7759263489545838
+        2.2798318074384922       -1.2398273771875536        1.8120545283567766        0.9970342621901004
-        2.3377311815724262       -0.8180246009020691        2.1284615145821633       -0.3970377457969525
-        2.3203806906262572       -1.6737395838897402        1.5319277272567222       -0.3893757401670396
+       -1.6829716742540946        3.2844246908834878        0.1611943770845171        0.1691966627363242
-       -1.5132083289215186        2.4541350467266865        0.1858081436859897       -0.6800109224217911
-       -0.9910676014935080       -0.7623940267874015       -0.6333829928919331       -0.9821368279659007
+       -0.8962612020201951       -1.0730182949435607       -0.3849466134768612        0.8921713087406896
-       -1.6888936931771734       -0.7533891871132010        0.4925685821622194       -0.3335771210350215
+       -1.2305201252276643        0.4498427157181735       -0.1089478190246206        0.9988617281482304
+       -5.3535716719540307       -0.8377853177954874       -1.1525059795137023        0.0655379221577991
+       -2.9281547784832536       -1.1598023947082594       -0.4824185922698891        0.9908754307264420
-       -2.5277773197554576       -1.2247739168005169       -1.0679419635335934       -0.6595771554465193
-       -3.0310665021527607       -1.3109903545080395        0.1973879516937411       -0.5578053818499882
+       -2.1494545030278371       -4.2777915195418412       -0.5098451642724146        0.0943160920587207
