25
s                      x[A]                      y[A]                      z[A]                      q[e]
N -1.7183688594145605 0.8913678607600103 -1.2634769904246665 0.1158659338886357
O -1.8464576917596884 0.0925845471545380 0.2353243388876364 -0.2341991647481463
N -3.3321827876649452 -0.4108583746372052 -0.0727924483921888 0.0569852111266852
N -2.1295238320331618 -0.3847142567899605 0.0073880137180659 0.3189271149812888
O -1.8108305215249350 -0.5024426884045020 -0.2738139217827176 -0.2877498234141676
N -1.4210357249847827 -0.6493128969956746 0.3817304149682134 0.5692545008206258
O -0.7784885815907348 -0.3253707603224698 0.8740166773897045 -0.2058946535748549
O -1.1912954196324217 -0.4723056003106781 0.2761429904953274 -0.9992971180892700
N -0.6971758282046739 -0.2333593164217490 0.3767640500679633 0.6691943173322236
N -1.0575568995635218 -1.5005224819798266 1.4237313638690656 0.0628076875181509
N 0.8009976966412243 1.5936627936637753 0.0998701127871527 0.7576134719858190
O 0.7489817596806476 1.2476247894498256 0.1857943724070057 -0.9235083265987739
N 0.7441428944524573 0.8253931060624431 0.0992614689696141 0.9955526175656415
O 0.7762323436174938 1.3982199652613423 0.0572667949628944 -0.9936641819349231
O 0.4304597709028896 -0.2021926635623701 0.0030171905175783 -0.9934394819660318
N 0.5352212091762287 0.2059124679736549 0.1657755602304828 0.8475065253219278
N 0.3744107406802377 -0.4754616760303839 0.1047026234049467 0.9207393412409772
O 0.6850758613097975 -0.3419403773230061 0.3220887184159872 -0.6738758902636315
N 2.7372481554784898 -0.4024405484236027 -0.4877865724553374 0.1207489421105395
N 1.0257638448779276 -0.8131502438360090 -0.0142461502206608 0.4308753055723465
O 1.2476321506398107 -0.5714554777122938 -0.3525578221971673 -0.7095764258838037
N 1.4653881124875263 -0.4035812377774353 -0.1867092266837717 0.9977500474782615
O 1.4296366244922007 -0.5993313651110579 -0.0547511054442038 -0.9963537733476465
O 1.3474075183287852 -2.0474978030767659 -0.6559137740231755 -0.1586318904925156
N 1.3948767775658506 -2.0097581070213262 -0.4853267197702618 0.3123697133706422
