25
s                      x[A]                      y[A]                      z[A]                      q[e]
N 0.0628862754907909 -0.0025960589940111 0.2440255028749221 0.1158659338886357
O -0.1700987223023724 0.4359899699716516 0.3105785388349643 -0.2341991647481463
N -0.0857188152284290 -0.0087933362564468 -0.3918827831100947 0.0569852111266852
N -0.5100365846276411 -0.0263049342991384 0.1355893174784291 0.3189271149812888
O -0.2397988272358010 -0.3441782000087150 0.2785161509613600 -0.2877498234141676
N 0.0339898685858822 0.1085906140087083 -0.5534096048641588 0.5692545008206258
O -0.1608934918427237 -0.4931887779520187 0.0466180135040339 -0.2058946535748549
O -0.0702515790290025 0.1710286383781665 -0.2696912429241247 -0.9992971180892700
N -0.1861814469007890 -0.0202161877954309 0.2415423407180629 0.6691943173322236
N 0.0176966571385244 -0.0157180651648798 0.3809438248085611 0.0628076875181509
N 0.0561422300911292 0.0078756901204253 0.2905254716914947 0.7576134719858190
O 0.0342648119050201 -0.0776573009245551 -0.0588116469573678 -0.9235083265987739
N 0.1041285733049621 -0.0068323825962164 -0.4782086405529115 0.9955526175656415
O 0.0671835648162380 0.0477659399004619 0.0932613810060838 -0.9936641819349231
O -0.0421328722978931 0.1155132933965352 -0.1236413144668226 -0.9934394819660318
N -0.0291126896408462 -0.0508340938822616 0.2960896301105729 0.8475065253219278
N -0.0809429760275507 0.0179416325621084 -0.4013658561914233 0.9207393412409772
O 0.1570417169960669 -0.2536438903556036 -0.2247248124999859 -0.6738758902636315
N -0.0646474423279547 0.0220814965756518 0.2191199629354366 0.1207489421105395
N 0.2642596576340301 0.0769685196040831 -0.4903340625559621 0.4308753055723465
O 0.3487217934105409 -0.2109647602206279 -0.1269372182407697 -0.7095764258838037
N 0.4498958473945756 -0.0081087632108374 0.1004796484716525 0.9977500474782615
O 0.3054042465667847 0.1243293051294678 -0.0358712310656531 -0.9963537733476465
O -0.0324107561019177 -0.3720614978323483 -0.1410322615392070 -0.1586318904925156
N -0.0305012775002502 -0.1981982107106340 -0.0905796145099248 0.3123697133706422
