21
s                      x[A]                      y[A]                      z[A]                      q[e]
N 0.2187424914348034 1.3165076825241298 -0.0674125119781399 0.0707249461841811
O -0.3030210963614859 0.0091517571202177 0.6626768168568633 -0.3496602100029151
N 0.1952547340657874 0.0165568735359456 0.4384682222028956 0.9824851761690530
N 0.1995321969925214 0.6069822127473378 -0.1659287120116393 0.1071394941056757
O 0.2246898804456515 -0.1379393454922083 0.3338845019417644 -0.8194842575378962
N -0.6101289627388256 -0.4252733897517571 0.5206770702486840 0.3116552922920345
N -1.9301510589783433 -0.3272335942030652 0.0936677191357062 0.0918298459672651
N -0.8829452410912975 -0.5431088931053605 -0.2704369993368039 0.5593901217632046
O -0.7227532613408365 -0.4851653147263000 0.0407856883659289 -0.9963138680841535
N 0.3003054987964568 0.1921799641990687 -0.4452969251764239 0.9989733053171830
O 0.2072332043331886 0.2244452019300802 -0.4713524667856673 -0.8354521971080898
N 0.3446695326530879 0.2602311716373700 0.2705083818502073 0.2899344186932475
O -0.1564595155731152 0.2081995423938031 -0.6769201369482737 -0.8678253524624289
N -0.1443887896593776 -0.1016276756141778 0.4378471685010830 0.9219570073558310
O 0.0738118190649835 -0.2331460236401618 0.3624800114205450 -0.9704818863270434
O 0.0311282344726471 0.4381896189250692 0.3235394613067233 -0.3320651923316272
N 0.2553568568194389 -0.0547974001720417 -0.2009496198182381 0.9769593393400061
O 0.7294952609072346 -0.2301678174932037 -0.2947771182052604 -0.1970026432733326
O 0.5176743845405674 0.7290787774322902 -0.5033771974611149 -0.1946060569702309
N 1.0481881052790458 -0.4874095665536952 0.4600598096778859 0.1283355164991325
N 0.1443285795806099 0.3890041825385262 0.8921860040509779 0.1235072004109040
