25
s                      x[A]                      y[A]                      z[A]                      q[e]
N       -1.7276295790341420        0.6290282798073353       -1.5237999117354573        0.1158659338886357
O       -1.8596070602442789        0.4153020320298986        0.1986902973567384       -0.2341991647481463
N       -3.3904523587169564       -0.0852913855903889        0.0332098262800437        0.0569852111266852
N       -2.1708120958619412       -0.1206632034036401        0.0715286918874453        0.3189271149812888
O       -1.8432101918369233       -0.3062888799006610       -0.1236465048121698       -0.2877498234141676
N       -1.3841859425990717       -0.2025123396040746        0.7700121333260613        0.5692545008206258
O       -1.0135729055871825       -0.2402408708310694        0.0042954153553774       -0.2058946535748549
O       -1.1019160363683558       -0.2249441979459075        0.6319768947222117       -0.9992971180892700
N       -0.6613713934612744       -0.2730042247587535        0.3844214329674489        0.6691943173322236
N       -1.0968798134474063       -0.7863171684898123        1.8317707466811843        0.0628076875181509
N        1.2280843684535638       -1.3414381901614556       -0.2124672029584861        0.7576134719858190
O        1.0453493352585248       -1.0836350054934629       -0.2141564511533249       -0.9235083265987739
N        0.9214259901920159       -0.6805800005837428       -0.1087801730196377        0.9955526175656415
O        1.1536797376053409       -1.1875833766488113       -0.1496923987770062       -0.9936641819349231
O        0.4035437350036193        0.1229575378290117        0.1933965066008783       -0.9934394819660318
N        0.5395751902191387       -0.2047454520449661       -0.0167324115907315        0.8475065253219278
N        0.2312139583768381        0.3371925061539788        0.1740131185211124        0.9207393412409772
O        0.4343002172687463        0.3321778816016416       -0.1334953042129037       -0.6738758902636315
N        2.4605328793945920        1.1981033940153876       -0.3305279885804451        0.1207489421105395
N        0.6979233182544722        0.9041462092472160        0.0393968048262178        0.4308753055723465
O        1.0967240398161187        0.7921273046745820        0.1926662410756871       -0.7095764258838037
N        1.2375696400053995        0.7009448168132575       -0.0406352889028139        0.9977500474782615
O        1.0969042293167681        0.8539770662327600       -0.1068203182181305       -0.9963537733476465
O        0.8167742624022831        2.1962047640601754        0.5849653676405678       -0.1586318904925156
N        0.8087721817038478        2.1819476343091524        0.4109915151058646        0.3123697133706422

        RMSE         4.578735717E-01 kcal/mol

Coordinates in bohr
s                   x[bohr]                   y[bohr]                   z[bohr]                      q[e]
+       -3.2647467506145280        1.1886911740037185       -2.8795645031768262        0.1158659338886357
-       -3.5141480448294433        0.7848070998826231        0.3754702457900131       -0.2341991647481463
+       -6.4070263993875489       -0.1611773596266552        0.0627574763433145        0.0569852111266852
+       -4.1022403310101740       -0.2280204078532906        0.1351696377795288        0.3189271149812888
-       -3.4831624542243693       -0.5788020982854942       -0.2336580304651044       -0.2877498234141676
+       -2.6157323382209356       -0.3826928588774078        1.4551120452657744        0.5692545008206258
-       -1.9153751997442994       -0.4539894500122113        0.0081171586167494       -0.2058946535748549
-       -2.0823195219862201       -0.4250829276285385        1.1942632486422751       -0.9992971180892700
+       -1.2498108008542188       -0.5159032158869774        0.7264512250645234        0.6691943173322236
+       -2.0728024399588723       -1.4859240961912232        3.4615450358528275        0.0628076875181509
+        2.3207431153330771       -2.5349507936349687       -0.4015048242336020        0.7576134719858190
-        1.9754239490680081       -2.0477733803416340       -0.4046970406797712       -0.9235083265987739
+        1.7412427663417009       -1.2861098075672026       -0.2055647348870321        0.9955526175656415
-        2.1801387405641446       -2.2442073330126826       -0.2828776367513601       -0.9936641819349231
-        0.7625871388011701        0.2323560715574526        0.3654664310959570       -0.9934394819660318
+        1.0196493336059835       -0.3869128297980453       -0.0316196753249187        0.8475065253219278
+        0.4369310577152298        0.6372014881877732        0.3288371362417356        0.9207393412409772
-        0.8207084668647608        0.6277252211618594       -0.2522695639970646       -0.6738758902636315
+        4.6497332647399361        2.2640872846705720       -0.6246073752154937        0.1207489421105395
+        1.3188839280716944        1.7085887128481243        0.0744491713396669        0.4308753055723465
-        2.0725080704581709        1.4969036623320504        0.3640864292544821       -0.7095764258838037
+        2.3386676807916427        1.3245937328362642       -0.0767895670551740        0.9977500474782615
-        2.0728485792650813        1.6137827726018767       -0.2018611460665200       -0.9963537733476465
-        1.5434796622631419        4.1502255194994593        1.1054243377184243       -0.1586318904925156
+        1.5283579213092868        4.1232834489349086        0.7766614034370480        0.3123697133706422
