24
s                      x[A]                      y[A]                      z[A]                      q[e]
N 1.5886263873261650 -0.4305135156658621 -0.1097060200496975 0.6959175615854226
O 1.7599564812073083 -0.5056344994311526 -0.3676362413213328 -0.4294665048044459
N 1.5553881571977861 -1.0501261598224902 0.9936884362673338 0.7289443612696791
O 1.5288186355223041 -0.9912038089102801 0.8000375827283250 -0.8899528116456963
N 2.4570896783880367 -0.0119332451968764 0.1633254213213443 0.4821174903544280
O 2.2123174756475086 -0.0961135588096760 0.2136031361391432 -0.6035297564939646
N 1.8746396962162932 -1.7312466615517208 -0.8288063747541077 0.0604057803354635
N 0.4165185931964046 1.6414325656243365 0.0192241295046702 0.6991174418445399
O 0.0679776906860174 1.5267973623998112 -0.0699050936154666 -0.4131324281244263
O 0.6289416743705624 1.5071802888798995 0.0263421771508169 -0.9286014603942530
O -0.0186742968781817 -0.0784328955375620 -0.1386706224918737 -0.1057946580878595
N 0.7180994046787146 0.1348347462668981 -0.2330948321176676 0.9961038253671308
O 0.8355785029042478 -0.1147441153330445 -0.4658072923197386 -0.3737552305035935
N -0.3198119020894511 -0.4336173390592309 -0.2362967647464708 0.9714181100989372
O -0.6232861174388521 -0.5904298699198658 -0.5918907766234404 -0.9973398242463560
N -0.8508214166570275 -0.5927654361044902 -0.3689149726784742 0.7637225416907655
O -0.7232738765543714 -0.6196552769593245 -0.1697267147812759 -0.9974375214017446
O -2.1195161165042542 -0.3761589384377040 0.0087314553949584 -0.4871145088925188
N -1.4703528754436539 -0.0429991512455943 -0.1294863565120671 0.4662300369825688
N -2.3091555792384200 -0.5217517111487031 0.0415560785493585 0.6223673236702755
N -1.9156217827241437 -0.3534423822817837 1.1702583212021040 0.9509229066582735
O -1.9059146078139673 -0.3971666294277569 1.0786354080294380 -0.9922381659518612
O -2.0153502790590148 0.4146754358176714 -0.0869546317870593 -0.6086911331096487
N -2.1664667876411587 0.7376062466232181 -0.1810241571962272 0.3897866237988844
