21
s                      x[A]                      y[A]                      z[A]                      q[e]
N       -2.0271756577790399        1.3608251809960099        0.0853998119119888        0.0707249461841811
O       -1.6126672630271415       -0.1397080225798724        0.3189887599810071       -0.3496602100029151
N       -1.4823290850037383        0.0791819429038069       -0.1547876863444205        0.9824851761690530
N       -2.9986669364720253       -0.8022857076373830        0.1003092910936965        0.1071394941056757
O       -1.5686683177338083       -0.0028241525400142       -0.3009442933954863       -0.8194842575378962
N       -0.4533845569042429       -0.6538479990313795       -0.1408238552605558        0.3116552922920345
N       -0.6399196698115837       -2.0248576748263436       -0.0075527000700354        0.0918298459672651
N       -1.1890013180865657       -1.0434646645352217       -0.0185138615083334        0.5593901217632046
O       -0.9171936606981348       -0.8357189445291439       -0.0459843064714274       -0.9963138680841535
N        0.6975146273188183        0.9421949822343123       -0.1383707625015749        0.9989733053171830
O        0.6263017723075596        1.0186098191518427       -0.1697014696183079       -0.8354521971080898
N        0.4446242216953288        1.7763313988498812       -0.0590969258509203        0.2899344186932475
O        0.4292347522784896        1.3765170038259107       -0.0645363553749910       -0.8678253524624289
N        0.5620714310383726       -0.3550644184294995       -0.1349317454197493        0.9219570073558310
O        0.6428461972637334       -0.1872907270251843       -0.2976039550155195       -0.9704818863270434
O        0.8132344569086238       -0.1959695416609998        0.3520771383309422       -0.3320651923316272
N        0.6051276849310088        0.3959341976918315       -0.0665749110770726        0.9769593393400061
O        1.5274809019817648       -0.4572974724317588       -0.6041675357668703       -0.1970026432733326
O        1.5211845326563369       -0.5490013827895555        0.4508576954134322       -0.1946060569702309
N        2.7672634694880922        0.0876740804340392        0.0830199637069974        0.1283355164991325
N        1.7852424021171898       -1.8277846396915611       -0.2358727937539196        0.1235072004109040

        RMSE         3.835938068E+00 kcal/mol

Coordinates in bohr
s                   x[bohr]                   y[bohr]                   z[bohr]                      q[e]
+       -3.8308068013972094        2.5715868967090376        0.1613822556792698        0.0707249461841811
-       -3.0474994586129602       -0.2640099002052371        0.6028013934635056       -0.3496602100029151
+       -2.8011959984575618        0.1496321861698339       -0.2925063347842233        0.9824851761690530
+       -5.6666592513977756       -1.5161002618037838        0.1895570880059125        0.1071394941056757
-       -2.9643535021995588       -0.0053368748371429       -0.5687022935368963       -0.8194842575378962
+       -0.8567726420610692       -1.2355936458479224       -0.2661185183735640        0.3116552922920345
+       -1.2092729182372968       -3.8264264484531334       -0.0142725346400930        0.0918298459672651
+       -2.2468868539919766       -1.9718624375642970       -0.0349861277754056        0.5593901217632046
-       -1.7332448227255681       -1.5792799230167647       -0.0868977453001159       -0.9963138680841535
+        1.3181116141333515        1.7804904732034543       -0.2614828448987465        0.9989733053171830
-        1.1835388215501355        1.9248935868991106       -0.3206893006663043       -0.8354521971080898
+        0.8402180077490162        3.3567798518776701       -0.1116770047147283        0.2899344186932475
-        0.8111361253350807        2.6012401442667565       -0.1219560367939512       -0.8678253524624289
+        1.0621610676066808       -0.6709745077267152       -0.2549840444733248        0.9219570073558310
-        1.2148032536204936       -0.3539281799154813       -0.5623899688324034       -0.9704818863270434
-        1.5367903993427348       -0.3703287626707876        0.6653293664804112       -0.3320651923316272
+        1.1435255954519405        0.7482071973404385       -0.1258083487623759        0.9769593393400061
-        2.8865205666128291       -0.8641669807601255       -1.1417111764921317       -0.1970026432733326
-        2.8746221530030365       -1.0374622559698967        0.8519975658864708       -0.1946060569702309
+        5.2293700743167193        0.1656800003216948        0.1568849943516738        0.1283355164991325
+        3.3736192075559432       -3.4540123853356661       -0.4457349806415079        0.1235072004109040
