21
s                      x[A]                      y[A]                      z[A]                      q[e]
N 0.1233245604508623 0.1290482531519129 0.0048627780315959 0.0707249461841811
O 0.7138999889947939 -0.4110721588736942 -0.5191497485061816 -0.3496602100029151
N 0.8119943309590133 0.0880774804041075 0.6477498708931017 0.9824851761690530
N 1.3347926649469966 -0.3550906416040229 0.9079484738283856 0.1071394941056757
O 0.7830013437367332 0.2204491868710460 -0.5871559724808527 -0.8194842575378962
N -0.4684263899602000 0.1277990190985561 0.5206943986960547 0.3116552922920345
N -1.2407834247520946 -0.0866660901018199 0.2908269839590866 0.0918298459672651
N -0.1742762954753051 -0.0793275466314642 -0.0810911584971431 0.5593901217632046
O -0.2536110242735836 -0.0104106683288890 -0.4199642242373798 -0.9963138680841535
N 1.2904326283893079 0.3312286162937459 -0.4038960823030948 0.9989733053171830
O 1.3198712676926627 0.3569449740209637 -0.3097981318883289 -0.8354521971080898
N 0.7268018791953870 -0.3472384451034665 -0.1320267257303293 0.2899344186932475
O 0.9969715484821235 -0.3041375902454751 0.1428573366804607 -0.8678253524624289
N -0.0481036498830892 0.2305718286206440 0.3759693308706495 0.9219570073558310
O 0.1405843185576227 0.4164213997614390 0.3548606275929103 -0.9704818863270434
O 0.2411564190166994 -0.2181499975073527 0.1517985824124465 -0.3320651923316272
N 0.6758637201438665 0.2150630016196330 0.5897021471744140 0.9769593393400061
O -0.1588822288743468 0.6198681318645434 0.6116127563910253 -0.1970026432733326
O 0.2821765861640256 -0.2029417283045651 -0.6309792236325604 -0.1946060569702309
N -0.2255252279585131 0.1275373863288903 0.3309993810524072 0.1283355164991325
N -0.8719190212350545 0.6451539486128448 0.1380814095702337 0.1235072004109040
