25
s                      x[A]                      y[A]                      z[A]                      q[e]
N -2.0264100582754003 1.4036345335800686 -0.2544282469900060 0.1158659338886357
O -1.8519873041185204 -0.1519059444577752 0.4299689041714402 -0.2341991647481463
N -3.3470196505899912 -0.5623584193877899 0.0295931609873208 0.0569852111266852
N -2.1525624225489199 -0.4258986461013800 -0.0165161453885185 0.3189271149812888
O -1.8947946428635098 -0.2996784131643487 -0.3378485621734319 -0.2877498234141676
N -1.3696775052429004 -0.7654080721848202 0.2011885415913296 0.5692545008206258
O -0.7757034287500990 -0.6801604038325406 -0.4377531012072272 -0.2058946535748549
O -1.0682931311800261 -0.7507595832064824 0.2396644656378520 -0.9992971180892700
N -0.5607185658275935 -0.6268214699547267 0.0327999802845990 0.6691943173322236
N -0.8225785459333194 -2.0187391309851641 0.2479284923519682 0.0628076875181509
N 1.7370581944850061 -1.0851568401558618 -0.0630618798149935 0.7576134719858190
O 1.4627094686210531 -0.8551982618018781 -0.1251046073818588 -0.9235083265987739
N 1.2152385939306256 -0.5144234304048261 -0.0403075512023285 0.9955526175656415
O 1.6022528107983882 -0.9403914393421405 -0.0063235241792933 -0.9936641819349231
O 0.3523236173784391 0.1102837083048178 0.1405744875584535 -0.9934394819660318
N 0.6588743745955998 -0.1654107302183691 -0.0490875686232861 0.8475065253219278
N 0.1221095020838825 0.2815120284288877 0.0588462732977143 0.9207393412409772
O 0.3988243814356247 0.3327997982586774 -0.2300780534627843 -0.6738758902636315
N 2.0823156412402857 1.7272297037110289 -0.0545271098215684 0.1207489421105395
N 0.4298326021326746 0.9606783521201308 -0.0330033284812190 0.4308753055723465
O 0.8204805142623044 0.9572024816736330 0.2311712435224113 -0.7095764258838037
N 1.0548606421593278 0.9273911326336176 0.0111422828475343 0.9977500474782615
O 0.8765517428069438 1.0350402143483648 -0.1084911068296688 -0.9963537733476465
O 0.0575696060992979 2.2372598224107074 0.4826714392879942 -0.1586318904925156
N 0.0755095583307355 2.2078945568674095 0.3110855124914995 0.3123697133706422
