25
s                      x[A]                      y[A]                      z[A]                      q[e]
N        2.0259014576768419        1.4011673593166571       -0.2639473450410157        0.1158659338886357
O        1.8302268587218804       -0.2682928333065967       -0.4363334443910337       -0.2341991647481463
N        3.3467722271005766       -0.5654292342929357        0.0155062060437049        0.0569852111266852
N        2.1541772876053811       -0.4221097685019915        0.0405436247339190        0.3189271149812888
O        1.9108078337854921       -0.2020580942346750        0.3418208562572386       -0.2877498234141676
N        1.3787319988794651       -0.7711175823677702       -0.0268742964986412        0.5692545008206258
O        0.7283725923267211       -0.6967221178527194        0.5536861573285218       -0.2058946535748549
O        1.0843096106479742       -0.7321817358568731       -0.0951812465597349       -0.9992971180892700
N        0.5591002172188755       -0.6358208480389915        0.0699340109017843        0.6691943173322236
N        0.8240779830099572       -2.0151451929805071        0.2873258651975417        0.0628076875181509
N       -1.7325724771364459       -1.0856062849776920       -0.0729783381058977        0.7576134719858190
O       -1.4710679480239792       -0.8558767407991499        0.0258589009349548       -0.9235083265987739
N       -1.2128463354908647       -0.5174619809454759       -0.0212143172120411        0.9955526175656415
O       -1.5982393591436197       -0.9355624913936106       -0.1086952293750633       -0.9936641819349231
O       -0.3405130633788329        0.1204734298207324       -0.0908104357848157       -0.9934394819660318
N       -0.6623752568943390       -0.1720293068758567        0.0556414618882334        0.8475065253219278
N       -0.1217621761000371        0.2762573817666389        0.0191554578659227        0.9207393412409772
O       -0.4222393850087379        0.3256739650265045        0.2820318243608623       -0.6738758902636315
N       -2.0851163169494211        1.7254952716885810       -0.0092140192644953        0.1207489421105395
N       -0.4411749902220376        0.9517284539467815        0.1177879419009908        0.4308753055723465
O       -0.7924056191699519        0.9747083735575689       -0.1907221718505538       -0.7095764258838037
N       -1.0541933191182156        0.9249261706136637       -0.0050256000673679        0.9977500474782615
O       -0.8899384085223149        1.0282308040817190        0.1431214477654989       -0.9963537733476465
O       -0.0093459102771676        2.2639801101372927       -0.2567423132377338       -0.1586318904925156
N       -0.0551940598371959        2.2203521539548499       -0.0911004034462084        0.3123697133706422

        RMSE         9.215287557E-01 kcal/mol

Coordinates in bohr
s                   x[bohr]                   y[bohr]                   z[bohr]                      q[e]
+        3.8283989121750244        2.6478225650394429       -0.4987881936692391        0.1158659338886357
-        3.4586275104413509       -0.5069999763725780       -0.8245507092767369       -0.2341991647481463
+        6.3244829135086391       -1.0685063961409760        0.0293024826675212        0.0569852111266852
+        4.0708050992557707       -0.7976718573491692        0.0766163468804448        0.3189271149812888
-        3.6109034842339236       -0.3818344595354851        0.6459478022956686       -0.2877498234141676
+        2.6054258782872184       -1.4572010412002541       -0.0507850601967821        0.5692545008206258
-        1.3764247167872490       -1.3166139882905918        1.0463151968080608       -0.2058946535748549
-        2.0490481993264824       -1.3836229548317958       -0.1798664882775740       -0.9992971180892700
+        1.0565462872276556       -1.2015272676500339        0.1321561274591544        0.6691943173322236
+        1.5572816939085083       -3.8080725177660213        0.5429671939835686        0.0628076875181509
+       -3.2740874742939274       -2.0514985586835608       -0.1379090721112094        0.7576134719858190
-       -2.7799155337045520       -1.6173726372598514        0.0488662406724100       -0.9235083265987739
+       -2.2919474063428771       -0.9778614243238267       -0.0400892494693437        0.9955526175656415
-       -3.0202346717086748       -1.7679568819849205       -0.2054042146626883       -0.9936641819349231
-       -0.6434764319266578        0.2276617877557482       -0.1716068529667767       -0.9934394819660318
+       -1.2517078278100728       -0.3250882755477084        0.1051471241888607        0.8475065253219278
+       -0.2300971652688369        0.5220507916749947        0.0361985691743408        0.9207393412409772
-       -0.7979167970482584        0.6154346000920246        0.5329629067052549       -0.6738758902636315
+       -3.9402987787577262        3.2607134942638645       -0.0174119729245886        0.1207489421105395
+       -0.8336999049211863        1.7985061237648206        0.2225869510742112        0.4308753055723465
-       -1.4974296005050445        1.8419318782142460       -0.3604126708500490       -0.7095764258838037
+       -1.9921366564207932        1.7478571487283048       -0.0094970077434077        0.9977500474782615
-       -1.6817398606329799        1.9430746134737338        0.2704603389558112       -0.9963537733476465
-       -0.0176612108169483        4.2783023616433331       -0.4851726568358228       -0.1586318904925156
+       -0.1043016568444317        4.1958574730450415       -0.1721548124320484        0.3123697133706422
