25
s                      x[A]                      y[A]                      z[A]                      q[e]
N -1.6790852050027447 0.5629217533434030 -1.5076452981114774 0.1158659338886357
O -1.8372887702297696 0.2187412611079241 0.1503453344685380 -0.2341991647481463
N -3.3522438904529590 -0.2804672388744107 -0.0201147953419951 0.0569852111266852
N -2.1485734271161236 -0.2906808049856155 0.0658255014858602 0.3189271149812888
O -1.8483570613266926 -0.4954852047354974 -0.1711751698360933 -0.2877498234141676
N -1.4568427233439585 -0.4813482963530689 0.4748230961725441 0.5692545008206258
O -0.7682766140479174 -0.1992781208928503 0.9370941171225152 -0.2058946535748549
O -1.2213875150125371 -0.3215901177316201 0.3631437352235762 -0.9992971180892700
N -0.7010518296166669 -0.1237922793509387 0.4290390896209035 0.6691943173322236
N -1.1257396160781616 -1.0267941985156808 1.7386904515322985 0.0628076875181509
N 0.9253728192819121 1.5759138514876454 0.0413733212909666 0.7576134719858190
O 0.8491549585823022 1.2330402685149542 0.1336287335191539 -0.9235083265987739
N 0.8092891781143486 0.8117367291629771 0.0616624665866387 0.9955526175656415
O 0.8819930564448603 1.3796129517551954 -0.0011178477958630 -0.9936641819349231
O 0.4083282336772822 -0.1939928372342922 0.0022965777078947 -0.9934394819660318
N 0.5546940444515268 0.2090197545730802 0.1520706361005828 0.8475065253219278
N 0.3372522649924674 -0.4615630354644378 0.1119585934369536 0.9207393412409772
O 0.6666928603217456 -0.3479529510365508 0.3156857973861309 -0.6738758902636315
N 2.6922861154620614 -0.5911772949185593 -0.4992357596398415 0.1207489421105395
N 0.9615362260807530 -0.8513053564941813 0.0106197146974332 0.4308753055723465
O 1.1959691628432867 -0.6392781216698694 -0.3400281922147265 -0.7095764258838037
N 1.4304274654550628 -0.4828247019772320 -0.1834185058268987 0.9977500474782615
O 1.3808609758132009 -0.6699239466594668 -0.0413147894875011 -0.9963537733476465
O 1.1789314593670157 -2.1301595480221129 -0.5812866458119272 -0.1586318904925156
N 1.2284434743953525 -2.0927569675096147 -0.4163271118172598 0.3123697133706422
