21
s                      x[A]                      y[A]                      z[A]                      q[e]
N        1.8884572188306281        1.5082525792250989       -0.1108769874497918        0.0707249461841811
O        1.6331385372996881       -0.0241916590949514       -0.3130460237571585       -0.3496602100029151
N        1.4688660332571637        0.1875805861207847        0.1702904916377311        0.9824851761690530
N        3.0755192806014895       -0.5342340978639168       -0.0607249769654711        0.1071394941056757
O        1.5638011530827740        0.1065693071064781        0.3017146655565424       -0.8194842575378962
N        0.5270040281056657       -0.6527983954780624        0.1240922447681371        0.3116552922920345
N        0.8579349269045546       -1.9997142769260114        0.0175467346334996        0.0918298459672651
N        1.2999393681124660       -0.9651811462042557        0.0277442169992095        0.5593901217632046
O        1.0093071218892076       -0.7894950651462093        0.0583150169994962       -0.9963138680841535
N       -0.7773902775255903        0.8214401948927677        0.1579515435681786        0.9989733053171830
O       -0.7135174732575486        0.8950996157469963        0.1528788081390908       -0.8354521971080898
N       -0.6105925923353727        1.6740489380162085        0.0688169948563967        0.2899344186932475
O       -0.5564219247129276        1.2709648837274443        0.0415130215556657       -0.8678253524624289
N       -0.5006089207352554       -0.4546962196364693        0.1234207297179849        0.9219570073558310
O       -0.5922546114816398       -0.3132314957737562        0.3009695209693785       -0.9704818863270434
O       -0.7697264265054823       -0.3275095551875646       -0.3497954226551775       -0.3320651923316272
N       -0.6255686294504774        0.2861525026383477        0.0731572195034570        0.9769593393400061
O       -1.4981319558306727       -0.4648430456061247        0.5776790460944898       -0.1970026432733326
O       -1.4942660963995329       -0.6303322828331265       -0.3854611232897410       -0.1946060569702309
N       -2.7726929266712399       -0.0810752038059187       -0.0529738945563832        0.1283355164991325
N       -1.6355978491809466       -1.8897149992342266        0.3601943142969380        0.1235072004109040

        RMSE         4.666637945E+00 kcal/mol

Coordinates in bohr
s                   x[bohr]                   y[bohr]                   z[bohr]                      q[e]
+        3.5686669432336688        2.8501843027508222       -0.2095271398959312        0.0707249461841811
-        3.0861845604272045       -0.0457156102098991       -0.5915712495645944       -0.3496602100029151
+        2.7757545178436693        0.3544759342211388        0.3218023909648782        0.9824851761690530
+        5.8118891339019001       -1.0095561318438377       -0.1147535754394755        0.1071394941056757
-        2.9551558940015945        0.2013868038110501        0.5701580859359693       -0.8194842575378962
+        0.9958932801327881       -1.2336101825918460        0.2345003569050561        0.3116552922920345
+        1.6212620453142890       -3.7789123125580941        0.0331585228533999        0.0918298459672651
+        2.4565293854332677       -1.8239280277815135        0.0524289716937775        0.5593901217632046
-        1.9073140368446841       -1.4919294505268217        0.1101994111304653       -0.9963138680841535
+       -1.4690547171170196        1.5522969967900331        0.2984851584371774        0.9989733053171830
-       -1.3483526101854468        1.6914931287643620        0.2888990777692948       -0.8354521971080898
+       -1.1538527737471749        3.1634940134641614        0.1300452730556299        0.2899344186932475
-       -1.0514850479075482        2.4017755453192224        0.0784482413804355       -0.8678253524624289
+       -0.9460137561506592       -0.8592513253939468        0.2332313773711454        0.9219570073558310
-       -1.1191990122397306       -0.5919217408799003        0.5687499667423622       -0.9704818863270434
-       -1.4545721376227048       -0.6189033627750132       -0.6610175487570520       -0.3320651923316272
+       -1.1821533823394146        0.5407498601008257        0.1382471089615357        0.9769593393400061
-       -2.8310590963164555       -0.8784260475192784        1.0916551855343144       -0.1970026432733326
-       -2.8237536807520827       -1.1911553825892320       -0.7284159550289445       -0.1946060569702309
+       -5.2396302614027679       -0.1532099307588625       -0.1001061525104455        0.1283355164991325
+       -3.0908319863398677       -3.5710438037224379        0.6806686059682918        0.1235072004109040
