21
s                      x[A]                      y[A]                      z[A]                      q[e]
N -1.9600325183122729 1.4487912793724309 0.0710893574704224 0.0707249461841811
O -1.6171405387016109 -0.0751771147757896 0.3335165117536188 -0.3496602100029151
N -1.5018439413965845 0.1563087974734597 -0.1488724304172994 0.9824851761690530
N -3.0491809610209031 -0.6492163663069265 0.1210073475787196 0.1071394941056757
O -1.5610769850193582 0.0476902418915258 -0.2920561809637094 -0.8194842575378962
N -0.4999360731884873 -0.6530526572660285 -0.1292302601194786 0.3116552922920345
N -0.7652862329747105 -2.0118324234691776 0.0057428229975928 0.0918298459672651
N -1.2620838329335358 -0.9978744153481472 -0.0055828543795471 0.5593901217632046
O -0.9629691562195992 -0.8103206452343819 -0.0394924595049572 -0.9963138680841535
N 0.7455839706303042 0.8980836887435780 0.0428725086741727 0.9989733053171830
O 0.7193175760719739 0.9964658807078163 0.0400464578406235 -0.8354521971080898
N 0.5186804225953298 1.7269871151042300 -0.1026813478517829 0.2899344186932475
O 0.5273558062892241 1.3400820137733260 -0.0850631847289477 -0.8678253524624289
N 0.5177014091323375 -0.4244933935492947 -0.1292611164027043 0.9219570073558310
O 0.6280758298646953 -0.2519343122715346 -0.2992435538542825 -0.9704818863270434
O 0.7948913045576715 -0.2658371688187645 0.3545460329448600 -0.3320651923316272
N 0.6038546838018957 0.3241987464161421 -0.0746997554145242 0.9769593393400061
O 1.5346462695059429 -0.4853660727105299 -0.5590774242053346 -0.1970026432733326
O 1.5291792699219318 -0.5372091487738464 0.3956810544950754 -0.1946060569702309
N 2.7785711481195801 -0.0152081883320515 0.0474363388233262 0.1283355164991325
N 1.7171109050717559 -1.8891024588635119 -0.2094190600423924 0.1235072004109040
