21
s                      x[A]                      y[A]                      z[A]                      q[e]
N 0.1230865831541745 0.1289583731411588 0.0048701444115888 0.0707249461841811
O 0.7141455781727178 -0.4114009959499904 -0.5190420483713092 -0.3496602100029151
N 0.8127468884167054 0.0886341651867772 0.6480969905378874 0.9824851761690530
N 1.3347103355792009 -0.3551060445044223 0.9082460229793671 0.1071394941056757
O 0.7836261476293810 0.2211904956793053 -0.5867263038943289 -0.8194842575378962
N -0.4684881147634650 0.1279240326318433 0.5209579776764468 0.3116552922920345
N -1.2407933084422884 -0.0865165671926199 0.2911364452138710 0.0918298459672651
N -0.1745176506496589 -0.0792741536830568 -0.0804153514055500 0.5593901217632046
O -0.2536908371557176 -0.0103561740853345 -0.4192040561404864 -0.9963138680841535
N 1.2894885296035810 0.3312040596142312 -0.4031910708779440 0.9989733053171830
O 1.3190217528493569 0.3569208305994462 -0.3091517059454592 -0.8354521971080898
N 0.7265457848573253 -0.3473484660157743 -0.1327089862239936 0.2899344186932475
O 0.9967985427365469 -0.3043520749691860 0.1415098617890120 -0.8678253524624289
N -0.0485071356216758 0.2308349731614172 0.3756236773090330 0.9219570073558310
O 0.1403849933664681 0.4171784682235695 0.3544330241865850 -0.9704818863270434
O 0.2411951492892684 -0.2185363723807323 0.1515402699481026 -0.3320651923316272
N 0.6760874408292292 0.2151971480898437 0.5892996176957794 0.9769593393400061
O -0.1589222427730338 0.6201036125817316 0.6113379589253549 -0.1970026432733326
O 0.2823378277985951 -0.2031362829344114 -0.6311370421234730 -0.1946060569702309
N -0.2259673995021718 0.1276986552472533 0.3309297727993461 0.1283355164991325
N -0.8719140026811237 0.6451594155847730 0.1383194469449224 0.1235072004109040
