25
s                      x[A]                      y[A]                      z[A]                      q[e]
N -1.9728698228145731 1.2481316748469549 0.0431878623793854 0.1158659338886357
O -1.6810368024495423 -0.3640593787020542 0.5764142411153197 -0.2341991647481463
N -3.2242905886031332 -0.7685358222476080 0.3920663114667511 0.0569852111266852
N -2.0555608003029286 -0.5980300193397506 0.1643999013096871 0.3189271149812888
O -1.8606236018419331 -0.4331590504114042 -0.1826553533462030 -0.2877498234141676
N -1.2513738983928901 -1.0029057608566285 -0.0306096102317694 0.5692545008206258
O -0.7655169254891044 -0.5466988031926803 0.4512197463738339 -0.2058946535748549
O -1.0672632190482902 -0.7779251489142655 -0.1201333383219413 -0.9992971180892700
N -0.6400751932209281 -0.4384643610783024 -0.0417644450565128 0.6691943173322236
N -0.6804322098603408 -2.1763735985625985 0.0159714404864938 0.0628076875181509
N 0.4719624444969122 1.6602962551714520 -0.1851357561082956 0.7576134719858190
O 0.4773130055689445 1.3067707205715284 -0.1015382736835880 -0.9235083265987739
N 0.5693010745732134 0.8929145531469456 -0.1709726176061064 0.9955526175656415
O 0.4899134710279824 1.4606924911027201 -0.2318781539925744 -0.9936641819349231
O 0.4768444958202236 -0.1723629961157379 -0.2780712311910905 -0.9934394819660318
N 0.4809520153198665 0.2505183682083185 -0.1134292993234757 0.8475065253219278
N 0.4690969118432968 -0.4532062935637828 -0.1777507710613373 0.9207393412409772
O 0.7139403885729733 -0.2577427852701879 0.0762659906124835 -0.6738758902636315
N 2.8310642042742042 -0.0148629113173712 0.2811379738533317 0.1207489421105395
N 1.1907673652935773 -0.6498635694066087 -0.1434502366260827 0.4308753055723465
O 1.4578136756253981 -0.3485745680356354 -0.2280563371630979 -0.7095764258838037
N 1.5639527708759484 -0.2095796030181452 0.0433297283956523 0.9977500474782615
O 1.5125848955383219 -0.4345958598724255 0.1098395911419450 -0.9963537733476465
O 1.9389244938147283 -1.6882205579260114 -0.7310820713481622 -0.1586318904925156
N 1.9086232663606233 -1.6933585546661556 -0.5587993746390051 0.3123697133706422
