25
s                      x[A]                      y[A]                      z[A]                      q[e]
N 1.4508414455529508 0.0035295548498788 -0.0757307692863181 0.1158659338886357
O 0.2451405669106519 -0.4400557999991877 0.2271119666184724 -0.2341991647481463
N -0.8526742121978170 -0.0061310992405662 0.2339605234242025 0.0569852111266852
N -0.0985441046179545 0.0325449106044775 0.3797413109371623 0.3189271149812888
O 0.1778406509173050 0.3395420972883313 0.2572893129976763 -0.2877498234141676
N -0.0245960456020160 0.1148399736599792 -0.5348235342370939 0.5692545008206258
O 0.2908871361365901 0.4970929849626839 -0.4693735823543363 -0.2058946535748549
O 0.2703609738553990 0.1671611442826567 -0.5876474650575462 -0.9992971180892700
N 0.1221606058759854 0.0182189295394418 -0.3567026780214118 0.6691943173322236
N 1.0581594587575458 0.0207772951886046 -0.3499504133771314 0.0628076875181509
N -1.0061468712198458 -0.0046060389958432 0.3272063904241664 0.7576134719858190
O -1.0027800756832235 0.0753900666499337 -0.0271758311319112 -0.9235083265987739
N -1.0989449992342393 0.0099329813438221 -0.4407305889719156 0.9955526175656415
O -1.0273807302727669 -0.0517002984326845 0.1280079775245815 -0.9936641819349231
O -0.3166707980299467 -0.1161528084728882 0.4966765027297189 -0.9934394819660318
N -0.6996158440104446 0.0526812918244794 0.6721775684640566 0.8475065253219278
N -0.0510870836413352 -0.0198812664911380 0.4007898073250876 0.9207393412409772
O -0.3153660741504570 0.2567318057575879 0.2730375086398147 -0.6738758902636315
N -0.4464276323635427 0.0228446419536426 0.3089223710549269 0.1207489421105395
N -0.1515190853142794 0.0756447360822794 -0.3350410496385954 0.4308753055723465
O -0.0849588500610553 0.2119613463069811 0.6642942692908079 -0.7095764258838037
N 0.0234503165134115 0.0079216743793137 0.4387931178468377 0.9977500474782615
O -0.1252725896697423 -0.1261624417799311 0.5714486238696753 -0.9963537733476465
O -1.0540091503461646 0.3707088967138499 0.0818473489323020 -0.1586318904925156
N -1.0469427307805690 0.2016942078391159 0.0370144186220227 0.3123697133706422
