25
s                      x[A]                      y[A]                      z[A]                      q[e]
N       -1.9728698228145731        1.2481316748469549        0.0431878623793854        0.1158659338886357
O       -1.6810368024495423       -0.3640593787020542        0.5764142411153197       -0.2341991647481463
N       -3.2242905886031332       -0.7685358222476080        0.3920663114667511        0.0569852111266852
N       -2.0555608003029286       -0.5980300193397506        0.1643999013096871        0.3189271149812888
O       -1.8606236018419331       -0.4331590504114041       -0.1826553533462030       -0.2877498234141676
N       -1.2513738983928901       -1.0029057608566285       -0.0306096102317694        0.5692545008206258
O       -0.7655169254891044       -0.5466988031926803        0.4512197463738339       -0.2058946535748549
O       -1.0672632190482902       -0.7779251489142655       -0.1201333383219413       -0.9992971180892700
N       -0.6400751932209281       -0.4384643610783024       -0.0417644450565128        0.6691943173322236
N       -0.6804322098603408       -2.1763735985625985        0.0159714404864938        0.0628076875181509
N        0.4719624444969122        1.6602962551714517       -0.1851357561082956        0.7576134719858190
O        0.4773130055689445        1.3067707205715284       -0.1015382736835880       -0.9235083265987739
N        0.5693010745732134        0.8929145531469456       -0.1709726176061064        0.9955526175656415
O        0.4899134710279824        1.4606924911027201       -0.2318781539925744       -0.9936641819349231
O        0.4768444958202236       -0.1723629961157379       -0.2780712311910905       -0.9934394819660318
N        0.4809520153198665        0.2505183682083185       -0.1134292993234757        0.8475065253219278
N        0.4690969118432968       -0.4532062935637828       -0.1777507710613373        0.9207393412409772
O        0.7139403885729733       -0.2577427852701879        0.0762659906124835       -0.6738758902636315
N        2.8310642042742042       -0.0148629113173712        0.2811379738533317        0.1207489421105395
N        1.1907673652935773       -0.6498635694066087       -0.1434502366260827        0.4308753055723465
O        1.4578136756253981       -0.3485745680356354       -0.2280563371630979       -0.7095764258838037
N        1.5639527708759484       -0.2095796030181452        0.0433297283956523        0.9977500474782615
O        1.5125848955383219       -0.4345958598724255        0.1098395911419450       -0.9963537733476465
O        1.9389244938147283       -1.6882205579260114       -0.7310820713481622       -0.1586318904925156
N        1.9086232663606233       -1.6933585546661556       -0.5587993746390051        0.3123697133706422

        RMSE         4.003193385E+00 kcal/mol

Coordinates in bohr
s                   x[bohr]                   y[bohr]                   z[bohr]                      q[e]
+       -3.7281836463000553        2.3586270339697260        0.0816132318410019        0.1158659338886357
-       -3.1766991634449901       -0.6879725191512170        1.0892650505215675       -0.2341991647481463
+       -6.0930261613511387       -1.4523222216515184        0.7408979516906056        0.0569852111266852
+       -3.8844469467994456       -1.1301129513543771        0.3106707885276043        0.3189271149812888
-       -3.5160690300441448       -0.8185519740409348       -0.3451685931730508       -0.2877498234141676
+       -2.3647539485090543       -1.8952172176629318       -0.0578437801450559        0.5692545008206258
-       -1.4466173335769144       -1.0331110111497355        0.8526817430450890       -0.2058946535748549
-       -2.0168351877757749       -1.4700654775539588       -0.2270191079654366       -0.9992971180892700
+       -1.2095668148870551       -0.8285775582118425       -0.0789233629385403        0.6691943173322236
+       -1.2858305235760896       -4.1127500479604100        0.0301816483485222        0.0628076875181509
+        0.8918797616007552        3.1375052093972893       -0.3498558750742349        0.7576134719858190
-        0.9019908566444322        2.4694387706473688       -0.1918795285137633       -0.9235083265987739
+        1.0758231138722167        1.6873639588832854       -0.3230914222281703        0.9955526175656415
-        0.9258022854153051        2.7603087616968867       -0.4381862055227012       -0.9936641819349231
-        0.9011055015322427       -0.3257188568220961       -0.5254784703200275       -0.9934394819660318
+        0.9088675884415452        0.4734111053103233       -0.2143503103239480        0.8475065253219278
+        0.8864646896818656       -0.8564357731693902       -0.3359002758948824        0.9207393412409772
-        1.3491518043058610       -0.4870632749733412        0.1441218349443315       -0.6738758902636315
+        5.3499359896654415       -0.0280868318167992        0.5312737740489207        0.1207489421105395
+        2.2502241995378580       -1.2280641650909452       -0.2710816598554159        0.4308753055723465
-        2.7548685888790185       -0.6587104678871174       -0.4309640184133251       -0.7095764258838037
+        2.9554424101064405       -0.3960480511864693        0.0818813197582561        0.9977500474782615
-        2.8583711940716667       -0.8212671504167318        0.2075667449905397       -0.9963537733476465
-        3.6640362712517871       -3.1902744938477747       -1.3815448900804459       -0.1586318904925156
+        3.6067752500983250       -3.1999839005201420       -1.0559777771448244        0.3123697133706422
