21
s                      x[A]                      y[A]                      z[A]                      q[e]
N       -2.0164365862693425        1.6897698339966982        0.0748945793074200        0.0690680479201058
O       -1.8836638335798492       -0.2167056521442891        0.3700883559720822       -0.3117950550350966
N       -1.9728487234523235       -0.2628264114526428        0.0292371491042808        0.5776243102962968
N       -3.3448228875158925       -0.4041163934803622        0.0010225271168353        0.0604184539076988
O       -1.8857431088909100       -0.2153763245229066       -0.2980118752857087       -0.3968494342195521
O       -0.9735110701078974       -0.1555603370931607        0.0590420116052735       -0.9828651838991298
N       -0.7305378950498298       -0.0022652960621673        0.0830392486172698        0.7759263489545838
N       -1.0320153357586475       -1.3326503388439028       -0.0248370877642162        0.9970342621901004
O       -1.1198198853518220       -1.3560916538952097       -0.3283834097288963       -0.3970377457969525
O       -1.1531962962624991       -1.3860821658571572        0.2216917212362615       -0.3893757401670396
N        1.8072719430218829       -1.2446940809970091       -0.3271805848863200        0.1691966627363242
O        1.3692303689638039       -1.0294070349142235       -0.1531745614423456       -0.6800109224217911
O        0.3557391794165172        0.3675694873766334       -0.3660429326190973       -0.9821368279659007
N        0.2798099510508059        0.4341440191123337       -0.2135787951835945        0.8921713087406896
O        0.5808830867935191        0.4061579067781639        0.3061106916956867       -0.3335771210350215
N        0.8191418130404553       -0.2101286310243856       -0.0980790454596630        0.9988617281482304
N        2.2857537803816750        1.6269301663811893        0.3273054013832637        0.0655379221577991
N        1.1474055888613075        0.9656018832373633        0.0255867751165723        0.9908754307264420
O        0.9418601655369512        1.1082190619134575       -0.1389956689074335       -0.6595771554465193
O        1.0597695773422939        1.0243242788049194        0.3659515115952404       -0.5578053818499882
N       -0.0372298283323352        2.2140789791902020        0.0551558143124167        0.0943160920587207

        RMSE         8.710550197E+00 kcal/mol

Coordinates in bohr
s                   x[bohr]                   y[bohr]                   z[bohr]                      q[e]
+       -3.8105128974021745        3.1932022013140982        0.1415302431724048        0.0690680479201058
-       -3.5596087578958877       -0.4095143323914393        0.6993656350081803       -0.3117950550350966
+       -3.7281437742839816       -0.4966699361823878        0.0552502044962654        0.5776243102962968
+       -6.3207991955680729       -0.7636693064856359        0.0019322962066728        0.0604184539076988
-       -3.5635380187732189       -0.4070022672560202       -0.5631608264240837       -0.3968494342195521
-       -1.8396693026053010       -0.2939664330899723        0.1115732318300695       -0.9828651838991298
+       -1.3805165459126323       -0.0042807891505742        0.1569214375504426        0.7759263489545838
+       -1.9502263418562484       -2.5183441614135504       -0.0469352936283284        0.9970342621901004
-       -2.1161528931565279       -2.5626418268810927       -0.6205547085316176       -0.3970377457969525
-       -2.1792251688284501       -2.6193156808514404        0.4189366374178773       -0.3893757401670396
+        3.4152490065353835       -2.3521309230627701       -0.6182816990022515        0.1691966627363242
-        2.5874704000011617       -1.9452973676074867       -0.2894579705131458       -0.6800109224217911
-        0.6722496211923221        0.6946056632167654       -0.6917208928095075       -0.9821368279659007
+        0.5287641746637839        0.8204132951278398       -0.4036054291022451        0.8921713087406896
-        1.0977099449503001        0.7675272074999614        0.5784653713793059       -0.3335771210350215
+        1.5479536845574402       -0.3970855637534698       -0.1853425345650912        0.9988617281482304
+        4.3194486351512458        3.0744524397059845        0.6185175679974142        0.0655379221577991
+        2.1682823177675363        1.8247231055449247        0.0483519974040010        0.9908754307264420
-        1.7798577613432114        2.0942305140282271       -0.2626637468598635       -0.6595771554465193
-        2.0026742572691334        1.9356923505984045        0.6915481321123091       -0.5578053818499882
+       -0.0703541792459238        4.1840028908027236        0.1042293832770747        0.0943160920587207
