11
s                      x[A]                      y[A]                      z[A]                      q[e]
C 1.2793842988520885 -0.7570283924591700 0.4073335499222005
C 0.4610974905036948 0.4038072388811149 -0.0973081227305057
H 1.0597947613178975 -0.9431564566045937 1.4632483118953163
H 2.3355938176195203 -0.5174142340887630 0.2897276157101322
H 1.0648351223324928 -1.6754202406150505 -0.1497525466930034
O -0.8953382680708184 0.3604526179713394 0.1549148021592103
O 0.9372975222320500 1.4094818637665096 -0.6053294784679804
C -1.6265560024290300 -0.8924817023064153 0.0253159848660642
H -1.5152266036371180 -1.2941067232611718 -0.9854238348371839
H -2.6660244592651741 -0.6287043562054524 0.2058842603108665
H -1.2981995609813051 -1.6264554434104610 0.7675859346950180
