24
s                      x[A]                      y[A]                      z[A]                      q[e]
N 0.8534843158525052 1.0600498296955183 0.1743137763993763 0.6959175615854226
O 0.9362739406475924 1.1642598447598447 0.4687160650148750 -0.4294665048044459
N 0.3895961017440229 1.6675004077805273 -0.8673664772620286 0.7289443612696791
O 0.4175972008067862 1.5816403303436288 -0.6855362763973285 -0.8899528116456963
N 1.7778610323047277 1.4352626150250987 -0.0277391882519450 0.4821174903544280
O 1.5483226150827847 1.3440595104707622 -0.0886486531982467 -0.6035297564939646
N 0.1143226385215889 1.9977460116003225 1.0944028922756441 0.0604057803354635
N 1.7337456133885760 -1.1402785463573879 0.1839117038236949 0.6991174418445399
O 1.3621925511854724 -1.3584386195500069 0.0988703803529944 -0.4131324281244263
O 1.6997794524721324 -0.9114084892032824 0.1949992311775290 -0.9286014603942530
O 0.0630411267216405 -0.3855545866509370 -0.0438802214865320 -0.1057946580878595
N 0.7051204943068624 0.0341139484634684 0.1416482095944803 0.9961038253671308
O 0.6149128928113491 0.1936201397031075 0.4092946855097659 -0.3737552305035935
N -0.3777808507632615 -0.4961253028739558 -0.2826491488422391 0.9714181100989372
O -0.7589363996732522 -0.6693248585353907 -0.1536925973103974 -0.9973398242463560
N -0.8050992236138458 -0.8942469827093279 -0.3605902929810682 0.7637225416907655
O -0.6631668694863603 -0.6811387424850132 -0.6253103826097863 -0.9974375214017446
O -2.1324308695246450 -0.1125680671149980 -0.0555153428942110 -0.4871145088925188
N -1.3748387884112216 0.0554597901352614 -0.1332780229634693 0.4662300369825688
N -2.3362909967738337 -0.1957918770114101 -0.0263975788743785 0.6223673236702755
N -2.0283342109852596 -0.1155392001372622 1.1797194311391084 0.9509229066582735
O -2.0315969668709530 -0.1792499938921498 1.0715741579368718 -0.9922381659518612
O -1.8647167952864658 0.6835672564367825 -0.1511754125356534 -0.6086911331096487
N -1.9491526116411912 0.9773281583081360 -0.2553095824383481 0.3897866237988844
