25
s                      x[A]                      y[A]                      z[A]                      q[e]
N        1.9085599622152640        1.2697563382298001       -0.7092731598825369        0.1158659338886357
O        1.7960209169256840       -0.3386856935430005       -0.3945623868550157       -0.2341991647481463
N        3.3564934071896833       -0.4801406570485113        0.0285719085697022        0.0569852111266852
N        2.1323143629942365       -0.3655559179687787        0.0168117866707061        0.3189271149812888
O        1.9125163767364546       -0.0810377862945041        0.3549306783792271       -0.2877498234141676
N        1.3368193160560156       -0.7537902882178567        0.1812134363455367        0.5692545008206258
O        0.6821637538419842       -0.6648890337640955        0.6069980886322420       -0.2058946535748549
O        1.0835275948764915       -0.6307970477131857        0.0367971055570315       -0.9992971180892700
N        0.5532865059683925       -0.5884133931794387        0.1726326637613895        0.6691943173322236
N        0.8707873520816314       -1.9459626341917127        0.7771020042017263        0.0628076875181509
N       -1.5575542372617466       -1.0399678700524484       -0.1652966893675758        0.7576134719858190
O       -1.3373250879323724       -0.8547886523747602       -0.0742249583017919       -0.9235083265987739
N       -1.0775971302738201       -0.5005446979208278       -0.0709869909853257        0.9955526175656415
O       -1.4315432010243034       -0.9160075507878852       -0.1844771381936762       -0.9936641819349231
O       -0.3161242366816912        0.0938463540818602       -0.0185976160653488       -0.9934394819660318
N       -0.6047750854496431       -0.1708369614835327        0.0411076402445418        0.8475065253219278
N       -0.1308546055853781        0.2438579818002219        0.0702731060212239        0.9207393412409772
O       -0.4416235342213536        0.2932927811661549        0.2728206217688615       -0.6738758902636315
N       -2.1141679670632461        1.6864411431290252       -0.0629305308453892        0.1207489421105395
N       -0.4652008899257524        0.9146488384581514        0.1670052042100412        0.4308753055723465
O       -0.7697411156751609        0.9364789915422067       -0.1192049996987058       -0.7095764258838037
N       -1.0066336385016472        0.8662671218526915        0.0095287541912791        0.9977500474782615
O       -0.8731019145782057        0.9607510246122898        0.1487376844068035       -0.9963537733476465
O       -0.0615207120866043        2.2180174766508718       -0.0626795382719976       -0.1586318904925156
N       -0.1067536732975476        2.1914929211507905        0.0979444950466810        0.3123697133706422

        RMSE         4.230081726E-01 kcal/mol

Coordinates in bohr
s                   x[bohr]                   y[bohr]                   z[bohr]                      q[e]
+        3.6066556226009898        2.3994917253185197       -1.3403320203160571        0.1158659338886357
-        3.3939876485831886       -0.6400232034070117       -0.7456148505629215       -0.2341991647481463
+        6.3428532814933041       -0.9073343435190592        0.0539930820783587        0.0569852111266852
+        4.0294901594391757       -0.6908005685013199        0.0317696724872570        0.3189271149812888
-        3.6141321624848244       -0.1531392219099927        0.6707217756596954       -0.2877498234141676
+        2.5262223865677180       -1.4244572007616698        0.3424437649461499        0.5692545008206258
-        1.2891026674755806       -1.2564581776344232        1.1470601461913141       -0.2058946535748549
-        2.0475704036925917       -1.1920336609252751        0.0695364517123519       -0.9992971180892700
+        1.0455599651917498       -1.1119401616604745        0.3262284548172746        0.6691943173322236
+        1.6455496089469028       -3.6773364289968140        1.4685099594856410        0.0628076875181509
+       -2.9433509339710633       -1.9652544536748435       -0.3123654723495953        0.7576134719858190
-       -2.5271781568959915       -1.6153164481374740       -0.1402648428639142       -0.9235083265987739
+       -2.0363634497968204       -0.9458923926203849       -0.1341459714326094        0.9955526175656415
-       -2.7052245866971538       -1.7310033998405050       -0.3486112675942841       -0.9936641819349231
-       -0.5973882289478056        0.1773439070874572       -0.0351444009499239       -0.9934394819660318
+       -1.1428592790001810       -0.3228350693092645        0.0776821817260323        0.8475065253219278
+       -0.2472793668111689        0.4608247991092989        0.1327969243653746        0.9207393412409772
-       -0.8345475302351112        0.5542430309778686        0.5155562565202663       -0.6738758902636315
+       -3.9951984409654808        3.1869118872178834       -0.1189214682274617        0.1207489421105395
+       -0.8791022752789257        1.7284358056540254        0.3155940974831346        0.4308753055723465
-       -1.4545998961304076        1.7696888162597084       -0.2252648022158369       -0.7095764258838037
+       -1.9022618854412339        1.6370076117901911        0.0180067357383259        0.9977500474782615
-       -1.6499234981656843        1.8155563112702209        0.2810734880636379       -0.9963537733476465
-       -0.1162572968868253        4.1914455723492008       -0.1184471610042276       -0.1586318904925156
+       -0.2017352054189655        4.1413214268545415        0.1850882711344879        0.3123697133706422
