21
s                      x[A]                      y[A]                      z[A]                      q[e]
N        2.1242578115577153        1.5614467538863912       -0.2796596963725240        0.0690680479201058
O        1.8505327721076397       -0.3427240764411365       -0.3451858338181545       -0.3117950550350966
N        1.9782604148963072       -0.3791984577157012        0.0135344367056273        0.5776243102962968
N        3.3132417546762754       -0.5955819847202334        0.0523882891990046        0.0604184539076988
O        1.8484850285218155       -0.2682844153302223        0.3231471143129201       -0.3968494342195521
O        0.9237075312986106       -0.1716352479617158        0.0036434806924586       -0.9828651838991298
N        0.7666140478734088       -0.0144081401639877        0.0030171170900274        0.7759263489545838
N        0.9926295426908880       -1.3789953983983836        0.1809029216308087        0.9970342621901004
O        1.0009776940648087       -1.3466432718132044        0.4595826074064281       -0.3970377457969525
O        1.0327459840595103       -1.4363261901894993       -0.0841391386540916       -0.3893757401670396
N       -1.8181360280843579       -1.2319741463682017        0.0246836808853700        0.1691966627363242
O       -1.4913006817148955       -0.9230911566700655        0.0022150472167042       -0.6800109224217911
O       -0.3920195890784659        0.4016028855934773        0.3715837553914409       -0.9821368279659007
N       -0.2282972999611327        0.4868079124374605        0.2582415190041139        0.8921713087406896
O       -0.5462525491906605        0.4927062510859740       -0.3060030989927099       -0.3335771210350215
N       -0.7909998598642696       -0.1065158845319166        0.0761138198554976        0.9988617281482304
N       -2.2524766346761718        1.7253349789540384       -0.0516095557094743        0.0655379221577991
N       -1.0610244727175007        1.1078291206382784       -0.0095992401302925        0.9908754307264420
O       -0.9518162001738243        1.0710970953779695        0.3497156479250027       -0.6595771554465193
O       -0.9694084059950260        1.1446625756419468       -0.3682248201919296       -0.5578053818499882
N        0.1974939944203702        2.2421096612040126        0.1374737615625241        0.0943160920587207

        RMSE         3.977907541E-01 kcal/mol

Coordinates in bohr
s                   x[bohr]                   y[bohr]                   z[bohr]                      q[e]
+        4.0142654837084866        2.9507067243304332       -0.5284802344727624        0.0690680479201058
-        3.4970001254677041       -0.6476546410742214       -0.6523066883041109       -0.3117950550350966
+        3.7383703889885944       -0.7165812322786761        0.0255763786359793        0.5776243102962968
+        6.2611195037694936       -1.1254868363778501        0.0989995187673992        0.0604184539076988
-        3.4931304509153334       -0.5069840687026999        0.6106595442834325       -0.3968494342195521
-        1.7455542541771389       -0.3243436121226868        0.0068851806521402       -0.9828651838991298
+        1.4486905944093589       -0.0272274388871458        0.0057015249885901        0.7759263489545838
+        1.8757979797242277       -2.6059236312395515        0.3418569771773893        0.9970342621901004
-        1.8915736994748025       -2.5447869724174197        0.8684852600219555       -0.3970377457969525
-        1.9516070670389105       -2.7142631262804060       -0.1589999284881554       -0.3893757401670396
+       -3.4357791519071386       -2.3280937302805969        0.0466453966415477        0.1691966627363242
-       -2.8181498591497074       -1.7443894749385078        0.0041858325945285       -0.6800109224217911
-       -0.7408096591728193        0.7589194649652453        0.7021915303589370       -0.9821368279659007
+       -0.4314193721080348        0.9199336302126558        0.4880057451399882        0.8921713087406896
-       -1.0322677133035285        0.9310798748535495       -0.5782620506375820       -0.3335771210350215
+       -1.4947731004189913       -0.2012858497762121        0.1438342738893245        0.9988617281482304
+       -4.2565639435308897        3.2604105848956784       -0.0975279257474647        0.0655379221577991
+       -2.0050456658443778        2.0934936318131268       -0.0181399348587569        0.9908754307264420
-       -1.7986719401024736        2.0240801640377439        0.6608667963652893       -0.6595771554465193
-       -1.8319163910472296        2.1630987740244345       -0.6958440627587006       -0.5578053818499882
+        0.3732095608771962        4.2369732029186222        0.2597877587896619        0.0943160920587207
