25
s                      x[A]                      y[A]                      z[A]                      q[e]
N -2.4183566259399565 0.1269100865268824 -0.2245304245138403 0.1158659338886357
O -1.0741497193788514 1.1789798638687152 -0.4133017260677401 -0.2341991647481463
N -1.9430129810318633 2.4623674936965299 0.0051171151820471 0.0569852111266852
N -1.2163834878214661 1.5055707103070990 0.0731906468167487 0.3189271149812888
O -1.2123736983539661 1.1803835834334961 0.3572967904419331 -0.2877498234141676
N -0.3662006557003501 1.2069024760854343 0.2664337122687276 0.5692545008206258
O -0.2799928584260339 0.6165682435756651 -0.4040438094487519 -0.2058946535748549
O -0.3951841467749405 0.9038440755838411 0.2900927094278707 -0.9992971180892700
N -0.3002642902361898 0.3938447734873396 0.0637421632000713 0.6691943173322236
N 0.8481320100733540 1.6566624719086589 0.4100336106332820 0.0628076875181509
N -0.9565355244566169 -1.8926305931416691 -0.1180592907940920 0.7576134719858190
O -0.7112590074652206 -1.6247372154994184 -0.1484751553999538 -0.9235083265987739
N -0.3580724864939047 -1.4121549212991669 -0.0269169175075303 0.9955526175656415
O -0.8192855669121257 -1.7575002641365569 -0.0416501660957017 -0.9936641819349231
O 0.2751831041302286 -0.6237398296898879 0.2311481938602816 -0.9934394819660318
N -0.0060299003646791 -0.9005816699774825 0.0040489332454815 0.8475065253219278
N 0.4823953712805111 -0.4166229551139428 0.1686683990042234 0.9207393412409772
O 0.5311848160746333 -0.6933744427224052 -0.1143906196303811 -0.6738758902636315
N 2.8969181144586793 0.1252432873887798 -0.1907810792074841 0.1207489421105395
N 1.1259642491339561 -0.7953698287778789 0.1424874491906671 0.4308753055723465
O 1.4688913067058249 -0.3655033674565987 -0.1451245537557639 -0.7095764258838037
N 1.6206871901105231 -0.0914936577968384 -0.0498935708602633 0.9977500474782615
O 1.5917456596524917 -0.2245090310256794 0.1539219201216697 -0.9963537733476465
O 1.9178648372726741 -1.7566082526145437 0.2330926442683234 -0.1586318904925156
N 1.9213641002910835 -1.6480554245767041 0.3709787132874210 0.3123697133706422
