25
s                      x[A]                      y[A]                      z[A]                      q[e]
N 0.0722971609872334 -0.0120912819825219 0.2429777816702660 0.1158659338886357
O -0.1647081891753850 0.4178422708068498 0.3041006194907069 -0.2341991647481463
N -0.0821393981089805 -0.0170061276263647 -0.3912296083373826 0.0569852111266852
N -0.5134898234138753 -0.0000004275858322 0.1469399177013272 0.3189271149812888
O -0.2380796695347074 -0.3711944099339553 0.2686914810333549 -0.2877498234141676
N 0.0027715851301141 0.1039503362613935 -0.5532201796799882 0.5692545008206258
O -0.1467216286882178 -0.4843801857443623 0.0527262366600623 -0.2058946535748549
O -0.0418708517581582 0.1736052816015749 -0.2619614618850082 -0.9992971180892700
N -0.1989344691868369 -0.0231105931992234 0.2381298475737440 0.6691943173322236
N 0.0165112826446939 -0.0095442416349615 0.3937224025947066 0.0628076875181509
N 0.0556126473911809 0.0051647774132248 0.2752535199997010 0.7576134719858190
O 0.0314889910104878 -0.0730659833582304 -0.0638085849339809 -0.9235083265987739
N 0.0989674287160973 -0.0065602042517963 -0.4931555540270051 0.9955526175656415
O 0.0632376486410273 0.0500102274170192 0.0853398656431392 -0.9936641819349231
O -0.0442153395467232 0.1107343055103497 -0.1278085780647805 -0.9934394819660318
N -0.0336153545680583 -0.0487198388061452 0.2897606140575849 0.8475065253219278
N -0.0820833985318484 0.0206545427627799 -0.3932145255224584 0.9207393412409772
O 0.1553208810275204 -0.2500678057771073 -0.2281518855471351 -0.6738758902636315
N -0.0681646325139307 0.0217432784924298 0.2167774183040110 0.1207489421105395
N 0.2676211158639810 0.0737768576406215 -0.4849899089524037 0.4308753055723465
O 0.3524333784143495 -0.2037738471959914 -0.1321626108386539 -0.7095764258838037
N 0.4493395750036977 -0.0101830022318567 0.0944777243470986 0.9977500474782615
O 0.3105971538652071 0.1241154875592212 -0.0426982624616220 -0.9963537733476465
O -0.0224462577050204 -0.3663380238145992 -0.1425045010867355 -0.1586318904925156
N -0.0420506266645327 -0.2007640770194299 -0.0807497133666171 0.3123697133706422
