21
s                      x[A]                      y[A]                      z[A]                      q[e]
N        2.0386309146936923        1.6656102054148667       -0.0738299694757405        0.0690680479201058
O        1.8756336788219607       -0.2012660506623292       -0.3840012876889401       -0.3117950550350966
N        1.9881341997210444       -0.3113243232999857       -0.0253696674749380        0.5776243102962968
N        3.3450292476524330       -0.4335365192070740       -0.0418907913233172        0.0604184539076988
O        1.8767357728606888       -0.2152891285932631        0.2852906382121974       -0.3968494342195521
O        0.9613052022154718       -0.1091063585404841       -0.1010858342707877       -0.9828651838991298
N        0.7410791042676081       -0.0414200067873690       -0.0731361610677703        0.7759263489545838
N        1.0375036778759437       -1.3890967544662560        0.0026224949980996        0.9970342621901004
O        1.1011495815022092       -1.3512189211231880        0.2822621121469346       -0.3970377457969525
O        1.1339727841256231       -1.3645109658644745       -0.2703290755243754       -0.3893757401670396
N       -1.7725891253401154       -1.2475905679349542        0.3247721241005782        0.1691966627363242
O       -1.3700927218532879       -0.9920756982508526        0.1521344092994722       -0.6800109224217911
O       -0.3368700180726970        0.4030187110649835        0.3669367306638541       -0.9821368279659007
N       -0.2621336489134141        0.4019819291132724        0.2746773323850047        0.8921713087406896
O       -0.5798554775776172        0.4410652733338347       -0.2795428744512481       -0.3335771210350215
N       -0.8071712662661904       -0.2390284231159291        0.1529765473121110        0.9988617281482304
N       -2.3227612397482496        1.5913558612852490       -0.4265476844228177        0.0655379221577991
N       -1.1301681370792578        0.9862373229726843       -0.2556862827467951        0.9908754307264420
O       -0.9628299290021536        1.1422155785610708        0.0167308244646945       -0.6595771554465193
O       -1.0515486470329707        1.0708404864101488       -0.3222481401552510       -0.5578053818499882
N        0.0690041362565642        2.2126793844681183        0.0375568656723767        0.0943160920587207

        RMSE         6.226466383E+00 kcal/mol

Coordinates in bohr
s                   x[bohr]                   y[bohr]                   z[bohr]                      q[e]
+        3.8524540996626597        3.1475471200016534       -0.1395184221600608        0.0690680479201058
-        3.5444339646584364       -0.3803377141043224       -0.7256572655552376       -0.3117950550350966
+        3.7570291381290493       -0.5883177072304623       -0.0479417234215682        0.5776243102962968
+        6.3211891597093466       -0.8192652866856572       -0.0791621227797747        0.0604184539076988
-        3.5465166205561323       -0.4068374908297392        0.5391211723781268       -0.3968494342195521
-        1.8166035551650974       -0.2061811361875217       -0.1910245419352078       -0.9828651838991298
+        1.4004365443653850       -0.0782724689427318       -0.1382073142854572        0.7759263489545838
+        1.9605978053407536       -2.6250124277035622        0.0049557973117913        0.9970342621901004
-        2.0808711322016786       -2.5534336964594289        0.5333980875509697       -0.3970377457969525
-        2.1428979957203400       -2.5785520206677921       -0.5108479164892744       -0.3893757401670396
+       -3.3497079798576568       -2.3576044901014521        0.6137303677332946        0.1691966627363242
-       -2.5891000107857836       -1.8747513654164532        0.2874923678343070       -0.6800109224217911
-       -0.6365920740354262        0.7615949873478391        0.6934099263255677       -0.9821368279659007
+       -0.4953608047132686        0.7596357534072875        0.5190649310790070        0.8921713087406896
-       -1.0957680449682492        0.8334925700511453       -0.5282594730361012       -0.3335771210350215
+       -1.5253326295820970       -0.4516982558891591        0.2890837780380316        0.9988617281482304
+       -4.3893825979530812        3.0072267459711788       -0.8060583030073397        0.0655379221577991
+       -2.1357082547986774        1.8637184351230713       -0.4831770484278158        0.9908754307264420
-       -1.8194848712080756        2.1584746197117837        0.0316166760913821       -0.6595771554465193
-       -1.9871389504880370        2.0235952433672266       -0.6089607293315736       -0.5578053818499882
+        0.1303989190486812        4.1813580400913493        0.0709721902514005        0.0943160920587207
