21
s                      x[A]                      y[A]                      z[A]                      q[e]
N 0.0998524150959327 -0.2962159272906771 0.2054749647576586 0.0707249461841811
O -0.0186304966113409 0.3031743794688843 0.4647874749814704 -0.3496602100029151
N 0.3029289511842823 -0.1366194363621624 0.4225494122421846 0.9824851761690530
N 0.1896956814626054 0.0452344231620208 -0.2020537784754202 0.1071394941056757
O 0.2004536147585095 -0.2952260340679324 0.4185473291992398 -0.8194842575378962
N -0.2531938995955080 -0.1706969130024873 0.3074411747247801 0.3116552922920345
N 0.1225259484637025 -0.2816358457879321 0.3567504867641411 0.0918298459672651
N -0.2700036704339813 -0.1116716758136000 -0.5354163765019715 0.5593901217632046
O -0.2145644620375321 -0.1209572682106819 -0.1851039988461634 -0.9963138680841535
N 0.3879414959646905 0.1072930991375343 -0.2374272326300859 0.9989733053171830
O 0.2882451516879636 0.1281160560221034 -0.2404984238463254 -0.8354521971080898
N -0.0242203040847791 0.0737823430854154 0.5338354286627673 0.2899344186932475
O -0.1133649890367378 0.0502137528415227 -0.3267243422754287 -0.8678253524624289
N -0.2784599854925290 -0.0815235114575363 0.3562283085600841 0.9219570073558310
O -0.0703610621562208 -0.2428179355779637 0.3206230177243514 -0.9704818863270434
O 0.0036168993987154 0.4223801218371964 0.3985242720824402 -0.3320651923316272
N 0.2995571854062082 -0.0302315281646639 -0.1267999265773005 0.9769593393400061
O 0.3291184670770713 -0.4677072927934595 -0.1939885544961281 -0.1970026432733326
O 0.3397773502348618 0.5337296381181030 -0.2684638404821855 -0.1946060569702309
N 1.6029079749307464 0.0910910074556478 0.2690954698071286 0.1283355164991325
N -0.4892559399754871 0.0904845883375353 0.8799577280875032 0.1235072004109040
