30
s                      x[A]                      y[A]                      z[A]                      q[e]
N       -2.6580591658930173       -1.2468804900501675        0.5163624578205466        0.2137068255539760
N       -2.2370038944307091       -0.7804101827101584       -0.0633834113403680        0.4524136045707061
O       -2.5773137866797713       -0.9903813750933113       -0.4552467398438578       -0.5303393512711568
N       -2.7911020335664731       -1.4078046281944603       -0.9034608324368523        0.2065219334641430
N       -3.6995647212647915       -0.1416538406737655        0.6643238360637468        0.0640972179527254
N       -2.1193874818287397       -1.5914678958520205        0.9724210972824371        0.2729192555687945
O       -2.3505405088496754       -1.2706841468505636        0.6592775136768340       -0.5760168259183410
O       -1.8818933286955595        1.4305648682486296        0.1683539878363350       -0.7855321009151053
O       -1.3588299615556105        1.5215674725822195       -0.0648059900173260       -0.7445427033607991
N       -1.6192868100928945        1.5204633517030970        0.0660161381036556        0.9977538426035523
N       -1.8203820896773582        0.0805654942998778       -0.0319437808816068        0.2084365764815679
N       -1.1474699833281456        0.3563278362367059       -0.3068471212789420        0.3300899125146088
N       -0.3471415862836599       -0.5653285626349245       -1.2497992341428290        0.6266498413516267
O       -0.4783438919291971       -0.7978443361418945       -0.8002492123646946       -0.5811225412727979
N       -0.0241593922787962        0.1296381332896626       -1.8535965649093418        0.5003074335780895
O       -0.0482573531892444        0.0771959158863272       -1.7557957663870232       -0.5967490130385100
N       -0.1837165360004193       -1.3108432833889725       -0.9162977960403225        0.9708061175491041
O       -0.1331326238186121       -1.3957155281380276       -0.5935682082454139       -0.1568654630532827
O       -0.1727711159927771       -1.1640810695519721       -1.0388457087134046       -0.7813807259506527
N        0.6576021999014713       -0.1835360200382482        0.3581466567017580        0.1400529194232831
N        0.8441069761940283        0.3829712605760557        0.0260713694592593        0.1778327620465852
N        1.2657520715670738        0.8064006944818473        0.0949591217322185        0.7120624373414439
O        1.2736037835716445        0.9676177196801528        0.0848349257034105       -0.9970019554920370
N        1.7848254132194510       -0.4172595630207441       -0.3895765415375333        0.9931708722557875
N        2.4041671517032999       -0.7763078678088662       -0.7058780565016276        0.8506195801821621
O        2.1232785297707673       -0.7034889241008127       -0.6645885057189028       -0.8089940633040810
O        2.2885668641185029       -0.6859181295821009       -0.5836591420121908       -0.9883399134133223
N        0.9439923535735926       -0.6945744411972435        1.7173318219692706        0.2529889584625400
N        1.0779916832573637       -0.3661097534788160        0.9538105001817998        0.5419198115726583
O        0.9820713659128769       -0.5568258132803852        1.3379180359773846       -0.9654652454832693

        RMSE         1.603187072E+00 kcal/mol

Coordinates in bohr
s                   x[bohr]                   y[bohr]                   z[bohr]                      q[e]
+       -5.0230038488006779       -2.3562626373714610        0.9757836267491027        0.2137068255539760
+       -4.2273247020566167       -1.4747615108407033       -0.1197772883305334        0.4524136045707061
-       -4.8704171961914078       -1.8715495586806792       -0.8602916578124412       -0.5303393512711568
+       -5.2744184316490363       -2.6603651854395158       -1.7072935383837970        0.2065219334641430
+       -6.9911641065961847       -0.2676869634926554        1.2553901087740256        0.0640972179527254
+       -4.0050618943800478       -3.0074384606189613        1.8376095524809897        0.2729192555687945
-       -4.4418778085201689       -2.4012450295086016        1.2458539415219938       -0.5760168259183410
-       -3.5562629885607948        2.7033758056915711        0.3181429291393316       -0.7855321009151053
-       -2.5678164784064936        2.8753458045854576       -0.1224655724219001       -0.7445427033607991
+       -3.0600085896418117        2.8732593185145165        0.1247524208763100        0.9977538426035523
+       -3.4400235931788186        0.1522467193889029       -0.0603649972778726        0.2084365764815679
+       -2.1684040056738554        0.6733620213643619       -0.5798570216023434        0.3300899125146088
+       -0.6560025248331051       -1.0683161542787389       -2.3617782643368894        0.6266498413516267
-       -0.9039389495317797       -1.5077072860558953       -1.5122518434826131       -0.5811225412727979
+       -0.0456546347644254        0.2449805673330597       -3.5027898547680700        0.5003074335780895
-       -0.0911931810671609        0.1458791390290376       -3.3179731307098073       -0.5967490130385100
+       -0.3471739377586061       -2.4771347990010608       -1.7315518838768258        0.9708061175491041
-       -0.2515841973807805       -2.6375200972296011       -1.1216813503625513       -0.1568654630532827
-       -0.3264900916160556       -2.1997944092832529       -1.9631338760754737       -0.7813807259506527
+        1.2426880573123515       -0.3468328120288290        0.6767990939146881        0.1400529194232831
+        1.5951310055950643        0.7237107964100900        0.0492677479936257        0.1778327620465852
+        2.3919247579926659        1.5238764599496830        0.1794467331879036        0.7120624373414439
-        2.4067623432972742        1.8285324843355140        0.1603147754530087       -0.9970019554920370
+        3.3728312127418603       -0.7885062973374172       -0.7361929684089834        0.9931708722557875
+        4.5432174765412592       -1.4670092591968766       -1.3339162047585227        0.8506195801821621
-        4.0124149093315058       -1.3294013988435249       -1.2558902619359900       -0.8089940633040810
-        4.3247645929818299       -1.2961974093964639       -1.1029559290227378       -0.9883399134133223
+        1.7838870127804414       -1.3125554676057032        3.2452868100554224        0.2529889584625400
+        2.0371090468777004       -0.6918471659338435        1.8024406209295456        0.5419198115726583
-        1.8558459172296180       -1.0522482866852463        2.5282986663076903       -0.9654652454832693
