21
s                      x[A]                      y[A]                      z[A]                      q[e]
N       -1.9892638760391148        1.4281031048653250        0.0465466066411640        0.0707249461841811
O       -1.6334041178901209       -0.0996261792555123        0.2925425957733851       -0.3496602100029151
N       -1.5012388160982315        0.1391511633535801       -0.1818999208300690        0.9824851761690530
N       -3.0444550991797730       -0.6991377286673011        0.0102059549498916        0.1071394941056757
O       -1.5519420007787483        0.0312900141461435       -0.3287120540774290       -0.8194842575378962
N       -0.4822072423390947       -0.6558093519486446       -0.1262143748804938        0.3116552922920345
N       -0.7302083566824242       -2.0217181356440266       -0.0174264389917393        0.0918298459672651
N       -1.2432055989428692       -1.0138930690485297       -0.0399262051350662        0.5593901217632046
O       -0.9460096213306594       -0.8212358131922533       -0.0586678606922867       -0.9963138680841535
N        0.7184019125730640        0.8899092334656591       -0.0842730994004983        0.9989733053171830
O        0.6896369089839725        0.9863930152534106       -0.0999321755204875       -0.8354521971080898
N        0.4998854806757660        1.7387455453675336       -0.0067122858267399        0.2899344186932475
O        0.5123539815153059        1.3517229475947761        0.0023200357241073       -0.8678253524624289
N        0.5336531750272536       -0.4071622486524564       -0.0784275655966558        0.9219570073558310
O        0.6478050289150600       -0.2305417988314044       -0.2417401138346879       -0.9704818863270434
O        0.7856891728330206       -0.2477608688839845        0.4187989677888170       -0.3320651923316272
N        0.6014307256943049        0.3426086140951164       -0.0129647288450761        0.9769593393400061
O        1.5279596474377464       -0.5401649553335870       -0.5143979526328319       -0.1970026432733326
O        1.5291472831386650       -0.5020718456998728        0.4896957800019766       -0.1946060569702309
N        2.7782489444600591        0.0322645814742726       -0.0005090669893879        0.1283355164991325
N        1.7453265787663816       -1.8909612699486351        0.0054457028842585        0.1235072004109040

        RMSE         3.878213088E-01 kcal/mol

Coordinates in bohr
s                   x[bohr]                   y[bohr]                   z[bohr]                      q[e]
+       -3.7591639169806177        2.6987237471114449        0.0879603386212165        0.0707249461841811
-       -3.0866864350073597       -0.1882661937186863        0.5528253860422147       -0.3496602100029151
+       -2.8369302113322079        0.2629575887771102       -0.3437410326112920        0.9824851761690530
+       -5.7531863387033200       -1.3211788311558452        0.0192864597040558        0.1071394941056757
-       -2.9327453440668938        0.0591295571979124       -0.6211757563430239       -0.8194842575378962
+       -0.9112396237331614       -1.2393000656969215       -0.2385106016199974        0.3116552922920345
+       -1.3798938086504053       -3.8204935792384100       -0.0329311970363867        0.0918298459672651
+       -2.3493180996377867       -1.9159802210016244       -0.0754495929341231        0.5593901217632046
-       -1.7876990963630142       -1.5519107713510054       -0.1108661890749346       -0.9963138680841535
+        1.3575828627681896        1.6816847277662057       -0.1592530776104261        0.9989733053171830
-        1.3032248839869951        1.8640126508934920       -0.1888444428549025       -0.8354521971080898
+        0.9446466525700393        3.2857528826044478       -0.0126843818883307        0.2899344186932475
-        0.9682087043518106        2.5543861684507112        0.0043842321198410       -0.8678253524624289
+        1.0084583467825201       -0.7694251385787033       -0.1482066196640580        0.9219570073558310
-        1.2241740873437525       -0.4356608602617479       -0.4568226086845591       -0.9704818863270434
-        1.4847373563919100       -0.4682001867961970        0.7914153507452989       -0.3320651923316272
+        1.1365393549975886        0.6474364488624406       -0.0244997868080170        0.9769593393400061
-        2.8874252644084417       -1.0207638281506402       -0.9720712499722809       -0.1970026432733326
-        2.8896695706199940       -0.9487782836758812        0.9253909089961843       -0.1946060569702309
+        5.2501296133718087        0.0609712225388956       -0.0009619971894545        0.1283355164991325
+        3.2981892333507612       -3.5733989140508484        0.0102908870118643        0.1235072004109040
