25
s                      x[A]                      y[A]                      z[A]                      q[e]
N 0.0653702941748973 -0.0035741469568269 0.2443855220318823 0.1158659338886357
O -0.1738644054985842 0.4400598830072012 0.3070548514904505 -0.2341991647481463
N -0.0838815677788258 -0.0061522141602068 -0.3910042652820120 0.0569852111266852
N -0.5105810871060341 -0.0325443566243785 0.1396230418977319 0.3189271149812888
O -0.2397786568050215 -0.3395387039225057 0.2739763522161611 -0.2877498234141676
N 0.0398295450727359 0.1148469832213286 -0.5524047091952784 0.5692545008206258
O -0.1602595626815702 -0.4970909576558948 0.0424188754751054 -0.2058946535748549
O -0.0730353289711466 0.1671659520674199 -0.2748227184325615 -0.9992971180892700
N -0.1841798974329993 -0.0182173322435908 0.2438924571783646 0.6691943173322236
N 0.0174695157697284 -0.0207941107368869 0.3799640466340221 0.0628076875181509
N 0.0594903294620682 0.0046346345886446 0.2967992824856729 0.7576134719858190
O 0.0359242106617068 -0.0753693170949181 -0.0568127605012675 -0.9235083265987739
N 0.1083568225371127 -0.0099231338760690 -0.4751788371726923 0.9955526175656415
O 0.0693340123620219 0.0517240803423143 0.0967132016367684 -0.9936641819349231
O -0.0430827512049847 0.1161404963772175 -0.1240305954354960 -0.9934394819660318
N -0.0259104014870991 -0.0526840894104173 0.2968682705369793 0.8475065253219278
N -0.0780175873135227 0.0198629999220948 -0.4042222769715815 0.9207393412409772
O 0.1556572457212739 -0.2567497116636299 -0.2265700701794257 -0.6738758902636315
N -0.0645018169904806 0.0228428927256091 0.2205344431936985 0.1207489421105395
N 0.2613488296537523 0.0756594878361556 -0.4891270993442468 0.4308753055723465
O 0.3494928680223053 -0.2119454837840779 -0.1259190512240153 -0.7095764258838037
N 0.4479959727191006 -0.0079055227793103 0.1040816815977354 0.9977500474782615
O 0.3051744917834119 0.1261763710146557 -0.0349097089554375 -0.9963537733476465
O -0.0341341466486267 -0.3707244929617678 -0.1403154662933175 -0.1586318904925156
N -0.0307545437530919 -0.2017089591535964 -0.0950582171843184 0.3123697133706422
