21
s                      x[A]                      y[A]                      z[A]                      q[e]
N       -2.0682022605579755        1.5654252235907693        0.0463534405740001        0.0707249461841811
O       -1.6933274113165215        0.0380940194680694        0.2923899042848415       -0.3496602100029151
N       -1.5603254447109289        0.2753916352017305       -0.1821628007086067        0.9824851761690530
N       -3.1034252757547796       -0.5582236297651834        0.0106364416948118        0.1071394941056757
O       -1.6116788951657157        0.1684063167701010       -0.3290021754083264       -0.8194842575378962
N       -0.6314276069698715       -0.3436455609110201        0.1260296904548990        0.3116552922920345
N       -0.8200373545179724       -1.8836616179572598       -0.0165119913952047        0.0918298459672651
N       -1.3948415794905749       -0.6965712633673865        0.0396025348395019        0.5593901217632046
O       -1.0563914750247347       -0.5919224999376683        0.0582822760775266       -0.9963138680841535
N        1.3080997635607374       -0.4578454383942470        0.0843223501206351        0.9989733053171830
O        1.3591652440556112       -0.5439767165464614        0.0998727120175002       -0.8354521971080898
N        1.7808721685039872       -1.1957242147858516        0.0066733782207519        0.2899344186932475
O        1.5059870875314370       -0.9225817947823064       -0.0024193428283831       -0.8678253524624289
N        0.2317724224246132        0.2909073452027940        0.0784747381764877        0.9219570073558310
O        0.4386691357132078        0.2549489765752988        0.2416849739462130       -0.9704818863270434
O        0.5200809833823279        0.3675848668749633       -0.4187794298513490       -0.3320651923316272
N        0.8269232037421023       -0.1700191936982969        0.0130105303131154        0.9769593393400061
O        0.8134602449735033        1.1015213441680514        0.5144378602651248       -0.1970026432733326
O        0.8420499746550230        1.0759852792622364       -0.4896444103844982       -0.1946060569702309
N        2.0893515475440365        1.6093022886737525        0.0008341836601083        0.1283355164991325
N       -0.0089982831949447        2.1920492358261243       -0.0056405824473053        0.1235072004109040

        RMSE         1.597259657E+00 kcal/mol

Coordinates in bohr
s                   x[bohr]                   y[bohr]                   z[bohr]                      q[e]
+       -3.9083358445073451        2.9582249424701388        0.0875953076575450        0.0707249461841811
-       -3.1999250481187045        0.0719872638125099        0.5525368409471788       -0.3496602100029151
+       -2.9485877570868464        0.5204147677732619       -0.3442378035856219        0.9824851761690530
+       -5.8646238219999711       -1.0548897770151651        0.0200999617525948        0.1071394941056757
-       -3.0456317140436613        0.3182418164925865       -0.6217240062015734       -0.8194842575378962
+       -1.1932252452262837       -0.6493959943511640        0.2381615986359857        0.3116552922920345
+       -1.5496460126839355       -3.5596045709759965       -0.0312031415228532        0.0918298459672651
+       -2.6358685736382013       -1.3163289146285158        0.0748379447205605        0.5593901217632046
-       -1.9962905690651722       -1.1185714123785215        0.1101375397548477       -0.9963138680841535
+        2.4719502979059333       -0.8652024863553012        0.1593461479829662        0.9989733053171830
-        2.5684500705061537       -1.0279670128986158        0.1887320731197962       -0.8354521971080898
+        3.3653606629227202       -2.2595912875233712        0.0126108571688162        0.2899344186932475
-        2.8459031439103013       -1.7434269204718971       -0.0045718953492347       -0.8678253524624289
+        0.4379864018164393        0.5497352103172989        0.1482957629205717        0.9219570073558310
-        0.8289645261892544        0.4817837416930780        0.4567184093967533       -0.9704818863270434
-        0.9828106216513836        0.6946347262565560       -0.7913784293944280       -0.3320651923316272
+        1.5626583818587372       -0.3212897121609466        0.0245863390387552        0.9769593393400061
-        1.5372170769477542        2.0815736618237906        0.9721466644676299       -0.1970026432733326
-        1.5912438360466989        2.0333174928298852       -0.9252938344879806       -0.1946060569702309
+        3.9483022046597092        3.0411405786658654        0.0015763786559368        0.1283355164991325
+       -0.0170042908377551        4.1423727092304947       -0.0106591560134716        0.1235072004109040
