21
s                      x[A]                      y[A]                      z[A]                      q[e]
N -0.0553292028190014 -0.0459880283558256 0.5205533789573624 0.0707249461841811
O 0.1900207815088349 0.2922667425074827 0.1889228683884892 -0.3496602100029151
N 0.4619463632052623 -0.1823450169481753 0.1885954910857790 0.9824851761690530
N -0.1171075170275092 -0.0106639201121069 -0.1772735264385180 0.1071394941056757
O 0.3434917474265105 -0.3291574685863163 0.1963055650439757 -0.8194842575378962
N -0.2433256975655971 -0.1261406311620124 0.2910326152474629 0.3116552922920345
N -0.0587207985931148 -0.0160921171820424 0.1075389974411597 0.0918298459672651
N -0.2598718086115166 -0.0397996026014578 -0.5498589063641480 0.5593901217632046
O -0.2059422663952149 -0.0584360880262918 -0.1997259951427423 -0.9963138680841535
N 0.3814947161488061 0.0842014039726725 -0.2336434436436285 0.9989733053171830
O 0.2813823846956813 0.0997648753820550 -0.2354856103404698 -0.8354521971080898
N -0.4947437378014390 0.0066643786382823 -0.2194174152701646 0.2899344186932475
O -0.1178799173015164 -0.0024687513131617 -0.3096477519549408 -0.8678253524624289
N -0.2787258324730201 -0.0785113515456457 0.3532247638040195 0.9219570073558310
O -0.0729986662735818 -0.2416853589843416 0.3109469719041556 -0.9704818863270434
O 0.0117131626373540 0.4187808756121413 0.4211114871015417 -0.3320651923316272
N 0.3020585886363705 -0.0129079419537783 -0.1256582470910080 0.9769593393400061
O 0.3275175237133451 -0.5144618742476502 -0.2148915756846372 -0.1970026432733326
O 0.3551582973076914 0.4896273983303172 -0.2411858681450484 -0.1946060569702309
N 1.6182435385641414 -0.0007062312794819 0.2537344309626361 0.1283355164991325
N -0.4613288312996731 0.0053797874326766 0.9003020283947217 0.1235072004109040
