25
s                      x[A]                      y[A]                      z[A]                      q[e]
N -1.8424115958635880 1.1250522921870665 -1.0805070597710758 0.1158659338886357
O -1.8770126202795201 0.1417440565384134 0.3248471251306643 -0.2341991647481463
N -3.3671903860174153 -0.3391941880521360 0.0400696606940610 0.0569852111266852
N -2.1582285419984943 -0.3177783442187101 0.0369560707017186 0.3189271149812888
O -1.8630858071404184 -0.3636135888955292 -0.2737472757719880 -0.2877498234141676
N -1.3925475597703625 -0.5785270841137873 0.5483652669681913 0.5692545008206258
O -0.9082186816902069 -0.5316306464671461 -0.1897474881889764 -0.2058946535748549
O -1.0874834730686023 -0.5880166014073774 0.5224866484553403 -0.9992971180892700
N -0.6139812468475896 -0.5208181753932887 0.2452724524869968 0.6691943173322236
N -0.9714404745861591 -1.6035574099204919 1.1980395653176463 0.0628076875181509
N 1.5846719550690138 -1.2035084061733392 -0.2520203112956720 0.7576134719858190
O 1.3312285503044654 -0.9461002413499988 -0.2671432383334222 -0.9235083265987739
N 1.1338008313169601 -0.5873019043333786 -0.1324843967052934 0.9955526175656415
O 1.4792517167327093 -1.0477915372716147 -0.1751999118535014 -0.9936641819349231
O 0.3829910075325927 0.1157786873874410 0.1951195578101544 -0.9934394819660318
N 0.6216688281290964 -0.1862886554892171 -0.0410284493170638 0.8475065253219278
N 0.1593042330513698 0.3053276140545504 0.1629773060311216 0.9207393412409772
O 0.3879679826867730 0.3435553187449166 -0.1734491860816400 -0.6738758902636315
N 2.2084400343759585 1.5809055983321825 -0.1676915391466406 0.1207489421105395
N 0.5152065942703775 0.9522119657306775 0.0774107190052463 0.4308753055723465
O 0.9407663531328987 0.8988169631573975 0.2682748511960977 -0.7095764258838037
N 1.1321229641750115 0.8641881550544306 0.0150801773637967 0.9977500474782615
O 0.9488480902088173 0.9987547843701179 -0.0691835827058586 -0.9963537733476465
O 0.3452743378173629 2.2071079214281371 0.7294172877014613 -0.1586318904925156
N 0.3349893439180376 2.1883193185726366 0.5577217207009211 0.3123697133706422
