25
s                      x[A]                      y[A]                      z[A]                      q[e]
N 0.0651916700537429 -0.0030821224031024 0.2432180035685907 0.1158659338886357
O -0.1713824073646782 0.4427545860476709 0.3059071430747854 -0.2341991647481463
N -0.0832014169818415 -0.0052956004531758 -0.3914334269729240 0.0569852111266852
N -0.5140543152650029 -0.0354096845483907 0.1414097737725962 0.3189271149812888
O -0.2358626795073839 -0.3373847330179088 0.2724332716666042 -0.2877498234141676
N 0.0362415482485079 0.1206659592917874 -0.5552071101457424 0.5692545008206258
O -0.1588401228200806 -0.4995312409346940 0.0438611261816004 -0.2058946535748549
O -0.0698977011190070 0.1605867358846724 -0.2706642448869215 -0.9992971180892700
N -0.1862629858203982 -0.0133883585154166 0.2409601135893394 0.6691943173322236
N 0.0174089062748555 -0.0220278455293109 0.3817817293277479 0.0628076875181509
N 0.0576889067239430 0.0060951486491510 0.2946373099943385 0.7576134719858190
O 0.0370734074607728 -0.0770087786809807 -0.0566317665139619 -0.9235083265987739
N 0.1056853843575050 -0.0078854107698378 -0.4765857058145406 0.9955526175656415
O 0.0703837501414098 0.0498443145864539 0.0966792459699319 -0.9936641819349231
O -0.0405248016570898 0.1126444060806003 -0.1245247265120260 -0.9934394819660318
N -0.0286710556291387 -0.0499872747533497 0.2966499261460454 0.8475065253219278
N -0.0808526574971308 0.0231036098905156 -0.4026502429410009 0.9207393412409772
O 0.1573203352930828 -0.2588616154367867 -0.2274346910913127 -0.6738758902636315
N -0.0645552103951666 0.0225722058252721 0.2201332517890761 0.1207489421105395
N 0.2632362963067141 0.0735113335599411 -0.4897227406682855 0.4308753055723465
O 0.3482714084495769 -0.2095682155577044 -0.1250088114112639 -0.7095764258838037
N 0.4494094197489482 -0.0096495264899712 0.1024283672316464 0.9977500474782615
O 0.3041061013146082 0.1278000150606741 -0.0346584942586969 -0.9963537733476465
O -0.0341551905677236 -0.3694146623318350 -0.1409024660345473 -0.1586318904925156
N -0.0306302177265704 -0.2031121782842416 -0.0932661480568015 0.3123697133706422
