25
s                      x[A]                      y[A]                      z[A]                      q[e]
N       -1.8422511320626747        1.1248658447324613       -1.0804629669497741        0.1158659338886357
O       -1.8771975836065804        0.1422410918501911        0.3246467387225166       -0.2341991647481463
N       -3.3671382081956573       -0.3393263899125721        0.0401415509017307        0.0569852111266852
N       -2.1580123685743331       -0.3183219169481224        0.0372780777294330        0.3189271149812888
O       -1.8632638978571776       -0.3631627959387634       -0.2740523257269650       -0.2877498234141676
N       -1.3923757726056962       -0.5792881850770210        0.5488440899350367        0.5692545008206258
O       -0.9083133549019625       -0.5313437094418031       -0.1899909861617947       -0.2058946535748549
O       -1.0875976757404968       -0.5871889368160453        0.5218991709524359       -0.9992971180892700
N       -0.6138504440660483       -0.5213773785694455        0.2457259734796585        0.6691943173322236
N       -0.9714662128862785       -1.6037233379794305        1.1982072174918172        0.0628076875181509
N        1.5845849671230283       -1.2035447602446538       -0.2518246612112264        0.7576134719858190
O        1.3311454420930717       -0.9458896632760272       -0.2673202507078387       -0.9235083265987739
N        1.1337627434354811       -0.5874680294848252       -0.1322725606424248        0.9955526175656415
O        1.4791770137678466       -1.0475722420998623       -0.1753902880150698       -0.9936641819349231
O        0.3827970738048123        0.1162246992418357        0.1949055716218236       -0.9934394819660318
N        0.6217452582165643       -0.1865866969507848       -0.0408084258243966        0.8475065253219278
N        0.1595198604897912        0.3048632669514173        0.1631415896485552        0.9207393412409772
O        0.3877242664196922        0.3438727726306264       -0.1735256160813392       -0.6738758902636315
N        2.2084829731953532        1.5808749973500293       -0.1677199480992634        0.1207489421105395
N        0.5154412755393210        0.9519234334991837        0.0774353611443377        0.4308753055723465
O        0.9405397021565122        0.8990821390252809        0.2682329089074832       -0.7095764258838037
N        1.1322684511071863        0.8639164849937946        0.0150913309174861        0.9977500474782615
O        0.9485676976295901        0.9989698322990838       -0.0691487094880785       -0.9963537733476465
O        0.3450813170752678        2.2071879174755451        0.7294181278286809       -0.1586318904925156
N        0.3353124117608592        2.1881404257579860        0.5576722483378583        0.3123697133706422

        RMSE         9.410212005E-01 kcal/mol

Coordinates in bohr
s                   x[bohr]                   y[bohr]                   z[bohr]                      q[e]
+       -3.4813500939130959        2.1256883744261210       -2.0417790962346660        0.1158659338886357
-       -3.5473893163876604        0.2687967073829527        0.6134934237086213       -0.2341991647481463
+       -6.3629690400545931       -0.6412339440750771        0.0758565374553957        0.0569852111266852
+       -4.0780523519560452       -0.6015412427626839        0.0704453573921572        0.3189271149812888
-       -3.5210584664030948       -0.6862782232797914       -0.5178838396687243       -0.2877498234141676
+       -2.6312088739475121       -1.0946960175090961        1.0371650155533647        0.5692545008206258
-       -1.7164634768604867       -1.0040940893298487       -0.3590309301514401       -0.2058946535748549
-       -2.0552617418340282       -1.1096262744810867        0.9862464982035993       -0.9992971180892700
+       -1.1600092212755007       -0.9852604535053977        0.4643547917880682        0.6691943173322236
+       -1.8358050824907768       -3.0305978897861641        2.2642834826064169        0.0628076875181509
+        2.9944316103801203       -2.2743699765922005       -0.4758796413254212        0.7576134719858190
-        2.5155003187073883       -1.7874724084932165       -0.5051620616265393       -0.9235083265987739
+        2.1425010763407695       -1.1101536831887040       -0.2499589135271950        0.9955526175656415
-        2.7952394470937931       -1.9796246342005426       -0.3314396094136504       -0.9936641819349231
-        0.7233816311177622        0.2196328505807756        0.3683181506910520       -0.9934394819660318
+        1.1749282578313651       -0.3525977558907804       -0.0771167484191701        0.8475065253219278
+        0.3014488478969465        0.5761080802505174        0.3082929241075951        0.9207393412409772
-        0.7326926757272636        0.6498253622737142       -0.3279158901450717       -0.6738758902636315
+        4.1734279720760394        2.9874207835754252       -0.3169447676836090        0.1207489421105395
+        0.9740428445259618        1.7988745817189251        0.1463316249887169        0.4308753055723465
-        1.7773624471954854        1.6990190070485804        0.5068867356700207       -0.7095764258838037
+        2.1396772730889198        1.6325655519064695        0.0285184823027030        0.9977500474782615
-        1.7925331599760181        1.8877793906398039       -0.1306721228613155       -0.9963537733476465
-        0.6521091802845301        4.1709806714483948        1.3784004925403959       -0.1586318904925156
+        0.6336486246947683        4.1349861287252816        1.0538478171268568        0.3123697133706422
