21
s                      x[A]                      y[A]                      z[A]                      q[e]
N -1.9423707108889832 1.4643667133301264 -0.2328369997562940 0.0707249461841811
O -1.6292744742779146 0.0055193899992335 0.3043905217735037 -0.3496602100029151
N -1.4884440619236134 0.1456878807285428 -0.2055229349732466 0.9824851761690530
N -3.0505959869981041 -0.6084404119021385 0.1195617240169717 0.1071394941056757
O -1.5412356549276605 0.0130132138311978 -0.3294657017908733 -0.8194842575378962
N -0.5321810053006452 -0.5833213830798665 -0.0779465388157138 0.3116552922920345
N -0.7796626112972889 -1.9576362738533306 0.3756153685927239 0.0918298459672651
N -1.3145800906680649 -0.8827485153654302 0.0357421369107068 0.5593901217632046
O -1.0048704066579928 -0.7127219476655564 0.0046496018594664 -0.9963138680841535
N 0.7815488545374113 0.8640655538088899 -0.1107922933946713 0.9989733053171830
O 0.7596421185450218 0.9617527279911243 -0.1296145318520235 -0.8354521971080898
N 0.6277634669057621 1.7296261426462449 -0.0619112733996017 0.2899344186932475
O 0.6114048473858001 1.3425665812773935 -0.0384992381967503 -0.8678253524624289
N 0.5013714520384485 -0.4073749760934417 -0.0606132561642370 0.9219570073558310
O 0.6242860993029773 -0.2447027487018985 -0.2317357685602345 -0.9704818863270434
O 0.7761271946157966 -0.2524791734936762 0.4257939454572162 -0.3320651923316272
N 0.6256401067996812 0.3368466344333265 -0.0202307703074595 0.9769593393400061
O 1.4667236670013066 -0.6284040674213167 -0.5129694465656309 -0.1970026432733326
O 1.4943495379023028 -0.5613550660586311 0.4891717441608856 -0.1946060569702309
N 2.7690040845709118 -0.1424828355420613 -0.0248572205257734 0.1283355164991325
N 1.5887319366412345 -1.9741508019103788 0.0434907632609325 0.1235072004109040
