25
s                      x[A]                      y[A]                      z[A]                      q[e]
N       -1.8342171127578912        1.1786960705633049       -0.8715008256808703        0.1158659338886357
O       -1.8773452645349173        0.0594091447262294        0.3158476161722020       -0.2341991647481463
N       -3.3669125158001636       -0.4225739504474361        0.0349702205201750        0.0569852111266852
N       -2.1176730932735790       -0.3209686731501671        0.0554576756835128        0.3189271149812888
O       -1.8469724110279726       -0.3917152632210000       -0.3395792164665554       -0.2877498234141676
N       -1.3093102958890217       -0.7037173255357957        0.4183725833120148        0.5692545008206258
O       -0.8386826934313175       -0.5878996748990577       -0.2078795725797204       -0.2058946535748549
O       -1.0344710168310691       -0.5651148152814520        0.4259248913591340       -0.9992971180892700
N       -0.5629201772980552       -0.5398525272650234        0.2052197713066762        0.6691943173322236
N       -0.9222900749078821       -1.8034313651747236        1.0644189563393400        0.0628076875181509
N        1.4598340979890625       -1.0137741106187190       -0.1787124216262732        0.7576134719858190
O        1.2473500678576839       -0.8349781695056707       -0.1820092554547007       -0.9235083265987739
N        1.0158478749029207       -0.4747752280993436       -0.0760825076985394        0.9955526175656415
O        1.3595300208717320       -0.9007850193900997       -0.1242446653754396       -0.9936641819349231
O        0.3306614105340507        0.0973276393139603        0.1588600002405821       -0.9934394819660318
N        0.5676547160936242       -0.1515492370618914       -0.0063270200588434        0.8475065253219278
N        0.1307632304657577        0.2552725295434287        0.1437422712167004        0.9207393412409772
O        0.3761428200487392        0.3146900407609048       -0.1110248633888077       -0.6738758902636315
N        2.1642033872101885        1.6247396747261167       -0.1287424859488223        0.1207489421105395
N        0.4604328308026612        0.9130879352913301        0.0760453304605286        0.4308753055723465
O        0.8391965029276376        0.8786965331482177        0.2356158995506322       -0.7095764258838037
N        1.0040928670628841        0.8222304928743107        0.0223046892818592        0.9977500474782615
O        0.8393048929370147        0.9510711218303929       -0.0241272145617343       -0.9963537733476465
O        0.2719387013882359        2.1296635444273262        0.6537615189943384       -0.1586318904925156
N        0.2370454460991868        2.1355044580550713        0.5021383883259122        0.3123697133706422

        RMSE         4.276128000E-01 kcal/mol

Coordinates in bohr
s                   x[bohr]                   y[bohr]                   z[bohr]                      q[e]
+       -3.4661679977404143        2.2274127585179611       -1.6468978786472090        0.1158659338886357
-       -3.5476683928961710        0.1122670128802608        0.5968654919441866       -0.2341991647481463
+       -6.3625425432385114       -0.7985490340984416        0.0660841393299961        0.0569852111266852
+       -4.0018221695381744       -0.6065428871054054        0.1047998185963014        0.3189271149812888
-       -3.4902720181193940       -0.7402345666493136       -0.6417117170193488       -0.2877498234141676
+       -2.4742378724724037       -1.3298330150023043        0.7906096008599962        0.5692545008206258
-       -1.5848805967464992       -1.1109693748049132       -0.3928354592529044       -0.2058946535748549
-       -1.9548669065345960       -1.0679122303206345        0.8048813946841428       -0.9992971180892700
+       -1.0637649655874875       -1.0201734246671492        0.3878091632987067        0.6691943173322236
+       -1.7428756498038820       -3.4079913662407519        2.0114603102270063        0.0628076875181509
+        2.7586866338040945       -1.9157554221489677       -0.3377175320910030        0.7576134719858190
-        2.3571500108222598       -1.5778800611018209       -0.3439476451078756       -0.9235083265987739
+        1.9196742686948649       -0.8971951522595293       -0.1437751024882762        0.9955526175656415
-        2.5691393987855382       -1.7022369845625076       -0.2347883901087338       -0.9936641819349231
-        0.6248595061669320        0.1839225827407272        0.3002018927448648       -0.9934394819660318
+        1.0727119472414679       -0.2863865525690580       -0.0119563351014920        0.8475065253219278
+        0.2471066928604053        0.4823951681899225        0.2716335252508436        0.9207393412409772
-        0.7108069139494849        0.5946779914472707       -0.2098065849212162       -0.6738758902636315
+        4.0897516816154171        3.0703130103977965       -0.2432880391538768        0.1207489421105395
+        0.8700919493862926        1.7254861261603733        0.1437048476903348        0.4308753055723465
-        1.5858515559752036        1.6604957950394075        0.4452495209540770       -0.7095764258838037
+        1.8974605232745860        1.5537904435326515        0.0421497540561485        0.9977500474782615
-        1.5860563834076622        1.7972639460913784       -0.0455938276918359       -0.9963537733476465
-        0.5138896685364245        4.0244808383394366        1.2354302222625955       -0.1586318904925156
+        0.4479509724144387        4.0355185654183288        0.9489040310147643        0.3123697133706422
