21
s                      x[A]                      y[A]                      z[A]                      q[e]
N -1.8657829305058093 1.2761739830068541 -1.1155671733495867 0.0707249461841811
O -1.6949534235814294 0.2456497790534339 0.0815274357766240 -0.3496602100029151
N -1.4825783681157105 0.1470967110097635 -0.3952001194348672 0.9824851761690530
N -3.1232430889880676 -0.3279627273945110 0.0925945020177872 0.1071394941056757
O -1.5395438220746978 -0.0190727480555967 -0.4774567736519376 -0.8194842575378962
N -0.6147162955138211 -0.2494464851106278 0.3985284304398135 0.3116552922920345
N -0.9528080069908471 -1.4996771629197323 1.0977320866546616 0.0918298459672651
N -1.4130573653165319 -0.5186724600043310 0.4655344992504147 0.5593901217632046
O -1.0753397781640359 -0.4242283852582359 0.4192543240123883 -0.9963138680841535
N 1.2490219467490515 -0.5448799580775785 -0.0632987906051021 0.9989733053171830
O 1.2938688607589521 -0.6278305726069836 -0.0634212605321368 -0.8354521971080898
N 1.6172577457686290 -1.3156230849189012 -0.2693690723549337 0.2899344186932475
O 1.3776730778295014 -1.0112859032478936 -0.2092538283855827 -0.8678253524624289
N 0.2838600813453303 0.2935920680031221 0.1892162232709312 0.9219570073558310
O 0.5075220498020414 0.2444533676115419 0.3035921504191192 -0.9704818863270434
O 0.4617016160480918 0.3855231453294911 -0.3541537897561891 -0.3320651923316272
N 0.7977913278259869 -0.2124634023491761 -0.0187706473442028 0.9769593393400061
O 1.0161145554155933 0.9976608481666521 0.5834355473270599 -0.1970026432733326
O 0.8309048275741906 1.0936225029891047 -0.3994888760584066 -0.1946060569702309
N 2.2008441207200642 1.4680257426437615 -0.1477920889475513 0.1283355164991325
N 0.2136833457287531 2.1882083859771528 0.3772194907234949 0.1235072004109040
