30
s                      x[A]                      y[A]                      z[A]                      q[e]
N       -2.0704702793076106        1.5990020799519875       -0.3664110569921424        0.2137068255539760
N       -1.8781781977076406        0.9590938985570113        0.1824630328140177        0.4524136045707061
O       -2.1512231295371946        1.2155075034551051        0.5112406611145429       -0.5303393512711568
N       -2.2394248415635838        1.6364025302328413        1.0833723627355807        0.2065219334641430
N       -3.3993934237591237        0.9377168874169329       -0.7028816546922944        0.0640972179527254
N       -1.4268032329361107        1.7915787882408531       -0.7607718011283691        0.2729192555687945
O       -1.7375665154531479        1.5325999782345716       -0.5307941820692117       -0.5760168259183410
O       -2.3208442348871872       -1.2236783036176249       -0.3217101210296192       -0.7855321009151053
O       -1.8702327763767765       -1.5304237789372996       -0.0779217466955086       -0.7445427033607991
N       -2.1182761092079829       -1.3872465111212564       -0.2236652678544415        0.9977538426035523
N       -1.7798497832289180        0.0102009345500928        0.0383385842495667        0.2084365764815679
N       -1.2725876962479081       -0.5043721119697759        0.3048567462793179        0.3300899125146088
N       -0.1320195006100989       -0.8451173856666627        1.0313235695948895        0.6266498413516267
O       -0.2133512435662733        0.2290585034017516        0.8648071693154441       -0.5811225412727979
N       -0.0011343938077368       -1.3723803879083658        1.3358037680422306        0.5003074335780895
O        0.0030801477396011       -1.2437812795499195        1.2758906860846102       -0.5967490130385100
N       -0.0783488789157046        0.3452361575088728        1.6237959244336475        0.9708061175491041
O       -0.0306088784651025        0.6471510490751948        1.4221986815407803       -0.1568654630532827
O       -0.0688892506058429        0.1914053138761032        1.6086593251434402       -0.7813807259506527
N        0.6426323171010658        0.3463926947384350       -0.1478569973910837        0.1400529194232831
N        0.7914416707759753       -0.3017078038811944       -0.2960014097055114        0.1778327620465852
N        1.0919641418712831       -0.5101516193139047       -0.7266060467952146        0.7120624373414439
O        1.0848195940741048       -0.6431558550326714       -0.8722521344981954       -0.9970019554920370
N        1.8223709940099995       -0.1486299467135929        0.4460149828013163        0.9931708722557875
N        2.4953740599647358       -0.2315851849165338        0.8451981601940868        0.8506195801821621
O        2.2043987465305253       -0.2250765617320864        0.7835762981615986       -0.8089940633040810
O        2.3688152469567290       -0.1986716785816134        0.6961153150868647       -0.9883399134133223
N        1.0837122979915568        1.7252492805779585       -0.6593951035440881        0.2529889584625400
N        1.1469507401051375        0.9235681408964145       -0.4077016149307859        0.5419198115726583
O        1.0831236560059712        1.3384085634207314       -0.5110875602197200       -0.9654652454832693

        RMSE         4.626626862E+00 kcal/mol

Coordinates in bohr
s                   x[bohr]                   y[bohr]                   z[bohr]                      q[e]
+       -3.9126217787915585        3.0216760051466776       -0.6924165470546688        0.2137068255539760
+       -3.5492424084734266        1.8124247968703844        0.3448051600389182        0.4524136045707061
-       -4.0652225495755863        2.2969762849691335        0.9661048337044837       -0.5303393512711568
+       -4.2318996291019619        3.0923526131462937        2.0472770574604016        0.2065219334641430
+       -6.4239225635871495        1.7720281004347751       -1.3282538259770564        0.0640972179527254
+       -2.6962673451670596        3.3855932419548180       -1.4376503481038863        0.2729192555687945
-       -3.2835248389725367        2.8961942187459688       -1.0030556330972085       -0.5760168259183410
-       -4.3857599837845020       -2.3124168595021422       -0.6079440205338712       -0.7855321009151053
-       -3.5342277382067229       -2.8920817980797109       -0.1472507604718098       -0.7445427033607991
+       -4.0029617045034849       -2.6215159745160617       -0.4226661000220610        0.9977538426035523
+       -3.3634286347581384        0.0192769725233957        0.0724494242694723        0.2084365764815679
+       -2.4048422165358629       -0.9531251569416265        0.5760957579660955        0.3300899125146088
+       -0.2494806993727996       -1.5970404027729117        1.9489190932638873        0.6266498413516267
-       -0.4031754188661030        0.4328578381365608        1.6342487013386262       -0.5811225412727979
+       -0.0021436936150377       -2.5934230730963872        2.5243032789544118        0.5003074335780895
-        0.0058206356537941       -2.3504059783208491        2.4110839627224006       -0.5967490130385100
+       -0.1480579233873390        0.6524017862971907        3.0685295808142090        0.9708061175491041
-       -0.0578423973064676        1.2229382445548367        2.6875660040992906       -0.1568654630532827
-       -0.1301818166330728        0.3617036221831279        3.0399255536849181       -0.7813807259506527
+        1.2143990786893835        0.6545873249149591       -0.2794092308016808        0.1400529194232831
+        1.4956080020413538       -0.5701451192487998       -0.5593615970928513        0.1778327620465852
+        2.0635131669573021       -0.9640468429621022       -1.3730864295445502        0.7120624373414439
-        2.0500119283303921       -1.2153884219964066       -1.6483176465475953       -0.9970019554920370
+        3.4437820776572474       -0.2808698933300814        0.8428461653452713        0.9931708722557875
+        4.7155735539051307       -0.4376325742057561        1.5971930445076563        0.8506195801821621
-        4.1657099022452222       -0.4253330589333453        1.4807446019255055       -0.8089940633040810
-        4.4764120585569680       -0.3754350614042354        1.3154672972509562       -0.9883399134133223
+        2.0479194419945839        3.2602486384354910       -1.2460761541662331        0.2529889584625400
+        2.1674227781898701        1.7452908444924708       -0.7704443931260534        0.5419198115726583
-        2.0468070698558813        2.5292256288326369       -0.9658155149437060       -0.9654652454832693
