30
s                      x[A]                      y[A]                      z[A]                      q[e]
N -2.0631675162154783 1.5938409223373637 -0.3799229588350607 0.2137068255539760
N -1.8694663006000254 0.9486027993777563 0.1441492108447382 0.4524136045707061
O -2.1423324154903569 1.2184084528300350 0.5563022862857874 -0.5303393512711568
N -2.2455175118836128 1.6306621816237998 1.0392955961641899 0.2065219334641430
N -3.4010618088755948 0.9365257342622604 -0.7044884420319424 0.0640972179527254
N -1.4072500759194979 1.7844196084853494 -0.7637821870233323 0.2729192555687945
O -1.7554082190009905 1.5276707291378120 -0.5033097181724784 -0.5760168259183410
O -2.3075235543132990 -1.2071326229842090 -0.3124083639649154 -0.7855321009151053
O -1.8707643210166722 -1.5005413647534755 -0.0783139585409254 -0.7445427033607991
N -2.1003070669627171 -1.3958617869171102 -0.2129097827406109 0.9977538426035523
N -1.7760702450108279 0.0022475563898309 0.0218290460497931 0.2084365764815679
N -1.2635279884924115 -0.5233178164630280 0.2843152626264933 0.3300899125146088
N -0.2368492988404979 -0.0847045831090752 1.3267748166751652 0.6266498413516267
O -0.2509802611523829 0.2349093358314315 0.9261239540203322 -0.5811225412727979
N 0.0168528572719227 -1.3620514180528309 1.3080017233041399 0.5003074335780895
O -0.0206477169042878 -1.2314152594941499 1.2921604323660290 -0.5967490130385100
N -0.0708328727213126 0.3566712390519500 1.5883915509840902 0.9708061175491041
O -0.0335664096066353 0.6316488832893573 1.4238700129940920 -0.1568654630532827
O -0.0797433729790592 0.1639759260469173 1.6121245291896595 -0.7813807259506527
N 0.6433318319836485 0.3476461711133534 -0.1481929330054358 0.1400529194232831
N 0.7952405540992100 -0.3018920622003503 -0.2982514861826092 0.1778327620465852
N 1.0896447861433751 -0.5190712648715279 -0.7328412437591837 0.7120624373414439
O 1.0695148595579180 -0.6213253027188907 -0.8499753987228860 -0.9970019554920370
N 1.8130944912019533 -0.1545386000270460 0.4306009661022198 0.9931708722557875
N 2.4811847882480893 -0.2368045968153707 0.8282515429051984 0.8506195801821621
O 2.1907974441670515 -0.2145874520457539 0.7815828687934533 -0.8089940633040810
O 2.3514595432693550 -0.1863107911657147 0.6938801991628714 -0.9883399134133223
N 1.0771487787364973 1.7139976145381193 -0.6527497110952825 0.2529889584625400
N 1.1369318839843228 0.9116146653615005 -0.4039784576218861 0.5419198115726583
O 1.0793620821039371 1.3347323157624538 -0.5101606235659241 -0.9654652454832693
