25
s                      x[A]                      y[A]                      z[A]                      q[e]
N 1.6511661431319815 0.5595028891975781 -1.4434574595201517 0.1158659338886357
O 1.7762621670926144 -0.5465106708886838 -0.2493708224998261 -0.2341991647481463
N 3.3715921903261359 -0.2675810714238565 -0.0201456325687340 0.0569852111266852
N 2.1146305127920777 -0.2454287237797032 0.0521590854366736 0.3189271149812888
O 1.8667354116490875 0.1411525948147638 0.1792166758320636 -0.2877498234141676
N 1.3447169508889998 -0.4171272643028492 0.6676538723530917 0.5692545008206258
O 0.9867754202267717 -0.1524424690235974 0.0310698764015124 -0.2058946535748549
O 1.0499904843754364 -0.3758378533072020 0.6011094185523602 -0.9992971180892700
N 0.6499805630601310 -0.1532262044823504 0.4032214281392875 0.6691943173322236
N 1.1221979896032630 -1.1073173213279530 1.8095855447219202 0.0628076875181509
N -0.8116418021107440 1.3022900453972477 0.0650730386159086 0.7576134719858190
O -0.7120899839948505 1.0691340466233550 0.0462072208152128 -0.9235083265987739
N -0.6877971468473267 0.6267622340020644 0.0688302839989412 0.9955526175656415
O -0.7808175993479461 1.1646581655582180 0.1019269604003171 -0.9936641819349231
O -0.4093785164560799 -0.2110065488899052 0.1947514037513219 -0.9934394819660318
N -0.4672318360242138 0.1377636942418427 0.0842269061667545 0.8475065253219278
N -0.2991472163430290 -0.4299752166698714 0.1560474872161082 0.9207393412409772
O -0.5257133650109240 -0.3313548499393467 -0.0963472146254458 -0.6738758902636315
N -2.6937175404635738 -0.5566948307931946 -0.5168004128619026 0.1207489421105395
N -0.8808129294982610 -0.8105533537341887 -0.1016362276394163 0.4308753055723465
O -1.2180981569124358 -0.6415424405633863 0.0399047850351785 -0.7095764258838037
N -1.2929746770465853 -0.4581661854323608 -0.1293904131453313 0.9977500474782615
O -1.2085109538091203 -0.6408299164604945 -0.2168070699880403 -0.9963537733476465
O -1.3609666680777179 -2.0455157428240036 0.0999542405201971 -0.1586318904925156
N -1.3214640640331463 -2.0562538924171836 -0.0493077443232417 0.3123697133706422
