25
s                      x[A]                      y[A]                      z[A]                      q[e]
N        1.6515162652828219        0.5627086859566770       -1.4475543005641265        0.1158659338886357
O        1.7759903979619256       -0.5498991868308164       -0.2489853053988943       -0.2341991647481463
N        3.3725491976762894       -0.2665254574004055       -0.0203530824589829        0.0569852111266852
N        2.1146627363179338       -0.2438072084370241        0.0501356329405955        0.3189271149812888
O        1.8649208781396123        0.1434278331100711        0.1833088613094991       -0.2877498234141676
N        1.3415268434882683       -0.4211385427828619        0.6681000287283537        0.5692545008206258
O        0.9879053541202041       -0.1521265496092686        0.0336925739696796       -0.2058946535748549
O        1.0485955263684721       -0.3675716167681266        0.5969033740616453       -0.9992971180892700
N        0.6468570919375823       -0.1567586826634906        0.4002891407682304        0.6691943173322236
N        1.1222242879049924       -1.1112216389174814        1.8136188153477606        0.0628076875181509
N       -0.8066870406376698        1.2975984083343399        0.0645268189107813        0.7576134719858190
O       -0.7081261084638792        1.0649064244552475        0.0490480598686352       -0.9235083265987739
N       -0.6834154093475799        0.6258661557047154        0.0671869955682696        0.9955526175656415
O       -0.7758826917327015        1.1595218475526370        0.1029340375511842       -0.9936641819349231
O       -0.4067923841116440       -0.2077694241505364        0.1944507594345288       -0.9934394819660318
N       -0.4648199091731189        0.1383835990785403        0.0826429152718236        0.8475065253219278
N       -0.2972818012554703       -0.4280191852366680        0.1563173842022160        0.9207393412409772
O       -0.5243209782405660       -0.3300133344284722       -0.0945984889289433       -0.6738758902636315
N       -2.6955055449525753       -0.5561483741018930       -0.5169282001955923        0.1207489421105395
N       -0.8792760989019042       -0.8097653257138134       -0.0996266990703743        0.4308753055723465
O       -1.2155815829714118       -0.6401167138748767        0.0387986417905015       -0.7095764258838037
N       -1.2896003374961686       -0.4561335876882985       -0.1285044968427809        0.9977500474782615
O       -1.2047265946901715       -0.6395377705191102       -0.2159722339077212       -0.9963537733476465
O       -1.3625138194413771       -2.0416120058782439        0.0984634206889643       -0.1586318904925156
N       -1.3199172759580375       -2.0559593972141572       -0.0493680259645625        0.3123697133706422

        RMSE         4.911232849E-01 kcal/mol

Coordinates in bohr
s                   x[bohr]                   y[bohr]                   z[bohr]                      q[e]
+        3.1209134331234898        1.0633653048743770       -2.7354811797948630        0.1158659338886357
-        3.3561354535908960       -1.0391588597222090       -0.4705140364673866       -0.2341991647481463
+        6.3731943282407215       -0.5036601199491437       -0.0384617516563374        0.0569852111266852
+        3.9961334193521383       -0.4607288513583868        0.0947426153842074        0.3189271149812888
-        3.5241897053321800        0.2710393233459067        0.3464035442444861       -0.2877498234141676
+        2.5351183241427555       -0.7958365067340134        1.2625260787070955        0.5692545008206258
-        1.8668705571606170       -0.2874775151723913        0.0636697372644240       -0.2058946535748549
-        1.9815583612167045       -0.6946096871835016        1.1279839003382177       -0.9992971180892700
+        1.2223827460721257       -0.2962309780215512        0.7564368470467911        0.6691943173322236
+        2.1206965554773713       -2.0999045622364299        3.4272428569845399        0.0628076875181509
+       -1.5244175757612655        2.4521056125818972        0.1219380154883896        0.7576134719858190
-       -1.3381644072829764        2.0123814914609643        0.0926874001367795       -0.9235083265987739
+       -1.2914679535845779        1.1827156254750575        0.1269650208163784        0.9955526175656415
-       -1.4662057928578285        2.1911787283593473        0.1945171399593299       -0.9936641819349231
-       -0.7687261958930496       -0.3926273088885973        0.3674586802185443       -0.9934394819660318
+       -0.8783823259973776        0.2615071025135995        0.1561724760731627        0.8475065253219278
+       -0.5617811864556239       -0.8088390365389051        0.2953970447901563        0.9207393412409772
-       -0.9908230507068030       -0.6236348198189353       -0.1787652359578572       -0.6738758902636315
+       -5.0937672496133217       -1.0509681121712411       -0.9768527248955050        0.1207489421105395
+       -1.6615910155855695       -1.5302346914912608       -0.1882671760264114        0.4308753055723465
-       -2.2971162749664598       -1.2096452775515678        0.0733188070237905       -0.7095764258838037
+       -2.4369914491657423       -0.8619675573533868       -0.2428383049226160        0.9977500474782615
-       -2.2766033200198610       -1.2085512331670158       -0.4081283727889098       -0.9963537733476465
-       -2.5747779608957004       -3.8580875455564785        0.1860688984778807       -0.1586318904925156
+       -2.4942821598210334       -3.8852001857961214       -0.0932920484275142        0.3123697133706422
