21
s                      x[A]                      y[A]                      z[A]                      q[e]
N 1.7034206681549788 0.0485906478812518 -1.7825811121269743 0.0707249461841811
O 1.6290843022048032 -0.3740531700707221 -0.2741564124459546 -0.3496602100029151
N 1.4538894745419433 0.0968948819351578 -0.3988076952893764 0.9824851761690530
N 3.1260964995005711 -0.1741999174221943 0.0958399120576719 0.1071394941056757
O 1.5276973955365865 0.2541417124862431 -0.3166902975593858 -0.8194842575378962
N 0.5961491605389339 -0.2356120560871289 0.5363481299199534 0.3116552922920345
N 1.1064128663222674 -0.3126361576994064 1.8139329251258851 0.0918298459672651
N 1.4247938940617100 -0.2860954902781810 0.6888561318567287 0.5593901217632046
O 1.0773442199671295 -0.2562542982624574 0.6054185082170608 -0.9963138680841535
N -1.0022973543258935 0.7755561198147509 0.0290358457281811 0.9989733053171830
O -1.0220280472819199 0.8651968170843215 0.0327833729814003 -0.8354521971080898
N -1.0594552085846969 1.6450125223084493 -0.0631071091958227 0.2899344186932475
O -0.9530932214897312 1.2695942094927308 -0.0500193479223280 -0.8678253524624289
N -0.4197675451214816 -0.3766530456268383 0.1873541593282018 0.9219570073558310
O -0.6283772284299218 -0.2741924682265897 0.2893652639045100 -0.9704818863270434
O -0.5623129979490070 -0.3297088780364248 -0.3773259680719600 -0.3320651923316272
N -0.7011185870301482 0.3018401318389962 0.0413891253796434 0.9769593393400061
O -1.3790225055920844 -0.8464176490514499 0.3939622825743094 -0.1970026432733326
O -1.1367522411201039 -0.8194608845863429 -0.5801181331309269 -0.1946060569702309
N -2.5759844043154345 -0.7360918860555021 -0.4490370589731940 0.1283355164991325
N -1.0047435340084621 -2.1825350996397588 -0.0270457454356009 0.1235072004109040
