21
s                      x[A]                      y[A]                      z[A]                      q[e]
N -0.0784998746164660 1.3556244462316966 0.1056064660906932 0.0707249461841811
O -0.3099829781722531 -0.1118969465449002 0.6602908002574263 -0.3496602100029151
N 0.1735802993932154 0.0262082311074131 0.4444536841156477 0.9824851761690530
N 0.0826579444775827 0.7323191850659359 -0.1122515229709562 0.1071394941056757
O 0.2331119377668769 -0.1047978409073380 0.3217967556425750 -0.8194842575378962
N -0.6904598525518995 -0.4548913268112502 0.5839638051088050 0.3116552922920345
N -1.8774857172190640 -0.3880682482939073 0.0800053987929828 0.0918298459672651
N -1.0327100577859687 -0.5858702869853707 -0.1779019050592683 0.5593901217632046
O -0.8457977754017885 -0.5217527108690174 0.1166292528107123 -0.9963138680841535
N 0.2799488758278716 0.1657159180327287 -0.5213640109955680 0.9989733053171830
O 0.1883466006226770 0.1944509414148538 -0.5554270019176286 -0.8354521971080898
N 0.4752325181021270 0.2019925170902248 0.2005499752649247 0.2899344186932475
O -0.1559792365621893 0.1646066515069794 -0.7917414372790579 -0.8678253524624289
N -0.1087746684665201 -0.1188577351833567 0.4500412467226464 0.9219570073558310
O 0.1042973466788745 -0.2459592066099466 0.3536114243206302 -0.9704818863270434
O 0.0478521636205437 0.4261210063359184 0.3294526888329928 -0.3320651923316272
N 0.2329389948898520 -0.0553029192408934 -0.2208773824279262 0.9769593393400061
O 0.8196750932767103 -0.2428277963199721 -0.3642943458060853 -0.1970026432733326
O 0.5757690931475870 0.7163731477152440 -0.5374680607298417 -0.1946060569702309
N 0.8800842646902032 -0.4913418352111467 0.4402891515895646 0.1283355164991325
N 0.3314339062987613 0.3484339192579876 0.8797307276546139 0.1235072004109040
