21
s                      x[A]                      y[A]                      z[A]                      q[e]
N        1.7036617960676830        0.0487178426552194       -1.7824703086353839        0.0707249461841811
O        1.6288714226391947       -0.3742004380647484       -0.2743583309912450       -0.3496602100029151
N        1.4542302919980046        0.0970342726304610       -0.3985268771070563        0.9824851761690530
N        3.1261437561133172       -0.1739625977094102        0.0957843048911761        0.1071394941056757
O        1.5272103669069081        0.2538511996114521       -0.3168565695220759       -0.8194842575378962
N        0.5962855648636188       -0.2357799323032939        0.5366429691487934        0.3116552922920345
N        1.1063979607367123       -0.3127233984168439        1.8140877081928484        0.0918298459672651
N        1.4248082759349219       -0.2860256666583628        0.6890924280450864        0.5593901217632046
O        1.0771672896585598       -0.2561411634821337        0.6050543067443502       -0.9963138680841535
N       -1.0018812934128334        0.7750435825196488        0.0291110802657409        0.9989733053171830
O       -1.0221540560477838        0.8655816665723661        0.0327209910502905       -0.8354521971080898
N       -1.0592018621321901        1.6446459284383812       -0.0631273423618077        0.2899344186932475
O       -0.9532582217663522        1.2698679140946567       -0.0500268379750277       -0.8678253524624289
N       -0.4195427731072722       -0.3770441649022033        0.1876764813722821        0.9219570073558310
O       -0.6285188345166963       -0.2736705768595620        0.2890091958919236       -0.9704818863270434
O       -0.5623821781005345       -0.3293840569701438       -0.3775918614249670       -0.3320651923316272
N       -0.7007680795581365        0.3013927412641280        0.0415991436579097        0.9769593393400061
O       -1.3791041619148230       -0.8460060559547461        0.3937579236317824       -0.1970026432733326
O       -1.1367262961499791       -0.8191611049744425       -0.5803199342030649       -0.1946060569702309
N       -2.5759550495514523       -0.7363544285451145       -0.4489807835834242        0.1283355164991325
N       -1.0047834740814108       -2.1827452417735942       -0.0268271021646629        0.1235072004109040

        RMSE         5.524870198E-01 kcal/mol

Coordinates in bohr
s                   x[bohr]                   y[bohr]                   z[bohr]                      q[e]
+        3.2194542049735073        0.0920633800415118       -3.3683807100811634        0.0707249461841811
-        3.0781208823729460       -0.7071363439687189       -0.5184621058111617       -0.3496602100029151
+        2.7480969752207951        0.1833682000545796       -0.7531066513663255        0.9824851761690530
+        5.9075555278642007       -0.3287416657439826        0.1810061033616734        0.1071394941056757
-        2.8860093294140197        0.4797092438845710       -0.5987721374488115       -0.8194842575378962
+        1.1268164101561589       -0.4455594979322125        1.0141082388437341        0.3116552922920345
+        2.0907891315574294       -0.5909615760302671        3.4281289360439424        0.0918298459672651
+        2.6924974228027478       -0.5405101748358002        1.3021959641319685        0.5593901217632046
-        2.0355511687563803       -0.4840366484373527        1.1433869307755733       -0.9963138680841535
+       -1.8932812547697113        1.4646201062558104        0.0550119689184704        0.9989733053171830
-       -1.9315912239561823        1.6357122890391271        0.0618337116386057       -0.8354521971080898
+       -2.0016014310047803        3.1079303780978544       -0.1192933880918287        0.2899344186932475
-       -1.8013969659793478        2.3997025731453099       -0.0945370226954557       -0.8678253524624289
+       -0.7928209390878381       -0.7125102088671231        0.3546571499832009        0.9219570073558310
-       -1.1877284619285065       -0.5171624388606288        0.5461482279745273       -0.9704818863270434
-       -1.0627482944484572       -0.6224456577657704       -0.7135452052950121       -0.3320651923316272
+       -1.3242597478279203        0.5695497371901742        0.0786109885670253        0.9769593393400061
-       -2.6061291644980638       -1.5987197462332210        0.7440946353930075       -0.1970026432733326
-       -2.1481013793295278       -1.5479901410291064       -1.0966457407874997       -0.1946060569702309
+       -4.8678495551423939       -1.3915082012182722       -0.8484507165661238        0.1283355164991325
+       -1.8987655813999205       -4.1247907085983249       -0.0506958758308898        0.1235072004109040
