21
s                      x[A]                      y[A]                      z[A]                      q[e]
N        1.8960034513788835       -1.4449260592828170       -0.3743270963243836        0.0707249461841811
O        1.6276215276014070       -0.0429700686494458        0.3202155926270229       -0.3496602100029151
N        1.4841296225376677       -0.1281697261453701       -0.2009736443208053        0.9824851761690530
N        3.0542590129818867        0.5656114041793001        0.2021567687013777        0.1071394941056757
O        1.5401722114204672        0.0243204449100656       -0.3102233369977140       -0.8194842575378962
N        0.5357877510195528        0.5629211964840085       -0.0836646362361010        0.3116552922920345
N        0.8936646457341030        1.8991015735176890        0.0999873831335569        0.0918298459672651
N        1.3274032659171588        0.8423035913197289        0.0147884272344820        0.5593901217632046
O        1.0120620818965134        0.6895445796553391       -0.0122596507452461       -0.9963138680841535
N       -0.7884906007162293       -0.8622194913278289       -0.1495935923473086        0.9989733053171830
O       -0.7692959683283189       -0.9496093859935435       -0.1737675359454255       -0.8354521971080898
N       -0.6425035638343874       -1.7272478216873868       -0.1414799148240906        0.2899344186932475
O       -0.6233092703548975       -1.3351958977027354       -0.1013123793014801       -0.8678253524624289
N       -0.5016774721877943        0.4023670729698777       -0.0400619385256785        0.9219570073558310
O       -0.6335369333373309        0.2573224711289721       -0.2123141379545247       -0.9704818863270434
O       -0.7644054971452977        0.2439387138407753        0.4493959074511108       -0.3320651923316272
N       -0.6337462950085004       -0.3410531166046920       -0.0171958680411165        0.9769593393400061
O       -1.4784632763455889        0.6536194973244265       -0.4556184266097041       -0.1970026432733326
O       -1.4760448734366172        0.5575752900979043        0.5442774267734996       -0.1946060569702309
N       -2.7677041441638495        0.1585208381517475       -0.0017893375160993        0.1283355164991325
N       -1.5660528943031815        1.9818759725148869        0.1429639046049188        0.1235072004109040

        RMSE         8.461569745E+00 kcal/mol

Coordinates in bohr
s                   x[bohr]                   y[bohr]                   z[bohr]                      q[e]
+        3.5829272560288872       -2.7305145235815660       -0.7073756933909566        0.0707249461841811
-        3.0757589230659583       -0.0812016613395740        0.6051197711662463       -0.3496602100029151
+        2.8045985212752957       -0.2422056799896812       -0.3797851462014951        0.9824851761690530
+        5.7717130507469117        1.0688506473345105        0.3820209272531288        0.1071394941056757
-        2.9105036656254146        0.0459589801293089       -0.5862371446512882       -0.8194842575378962
+        1.0124921108019429        1.0637668915698102       -0.1581032488722858        0.3116552922920345
+        1.6887814284417491        3.5887818583744475        0.1889487701236439        0.0918298459672651
+        2.5084286306216996        1.5917231020838452        0.0279460772994326        0.5593901217632046
-        1.9125201567450814        1.3030504068425308       -0.0231673823022802       -0.9963138680841535
+       -1.4900312878513955       -1.6293586986411577       -0.2826909196597973        0.9989733053171830
-       -1.4537586895594021       -1.7945016656919661       -0.3283730524325028       -0.8354521971080898
+       -1.2141557702776034       -3.2640253337827789       -0.2673582912706323        0.2899344186932475
-       -1.1778838124297064       -2.5231545704929768       -0.1914526499982998       -0.8678253524624289
+       -0.9480330257469181        0.7603635698151743       -0.0757060918684601        0.9219570073558310
-       -1.1972112943699886        0.4862689963597863       -0.4012155732967227       -0.9704818863270434
-       -1.4445170383990484        0.4609773605554942        0.8492351869841923       -0.3320651923316272
+       -1.1976069305896673       -0.6444969846167014       -0.0324954810872232        0.9769593393400061
-       -2.7938906788402362        1.2351618402025817       -0.8609940440043481       -0.1970026432733326
-       -2.7893205596812689        1.0536645926077373        1.0285352728708421       -0.1946060569702309
+       -5.2302028287643259        0.2995609692848293       -0.0033813578514346        0.1283355164991325
+       -2.9594110682135688        3.7452028026785222        0.2701626255293758        0.1235072004109040
