21
s                      x[A]                      y[A]                      z[A]                      q[e]
N -1.8855980386292224 1.1329820230955319 -1.3452888048695868 0.0690680479201058
O -1.8967432145595196 0.0951909579656543 0.2979075081206515 -0.3117950550350966
N -1.9870106979646103 -0.2116927356573908 0.0878950276872388 0.5776243102962968
N -3.3432629072101387 -0.2964643509896098 0.0866313523401412 0.0604184539076988
O -1.8106948256232924 -0.3855958879271777 -0.1643991033047259 -0.3968494342195521
O -0.8806307515983662 0.0349612911389923 0.4691375665407217 -0.9828651838991298
N -0.7057943667721844 0.1662520796572798 0.4295884224162055 0.7759263489545838
N -1.1122386116878860 -0.9488777259731616 0.9316119186680730 0.9970342621901004
O -1.0851281505423334 -1.1484930195032195 0.7361276308839430 -0.3970377457969525
O -1.1883158280061177 -0.7760116438544504 1.1303273952785431 -0.3893757401670396
N 1.5437324507765420 -1.4043779851724614 -0.4012060774686729 0.1691966627363242
O 1.2899233219525301 -1.0562945151665011 -0.2707265563488784 -0.6800109224217911
O 0.3539948594577700 0.4358381131028767 -0.2452646996878717 -0.9821368279659007
N 0.2444845961949191 0.5328696894592385 -0.0858529227443049 0.8921713087406896
O 0.7061351395756110 0.4458766194276715 0.3607824111792889 -0.3335771210350215
N 0.7347490089844263 -0.1464107750831835 -0.1017639982473061 0.9988617281482304
N 2.4494075586217692 1.4687495752254371 -0.2029351740730024 0.0655379221577991
N 1.2111599619176148 1.0068468294129442 0.0383290051490355 0.9908754307264420
O 1.0009358057127451 1.0443285297614757 -0.2722776331798530 -0.6595771554465193
O 1.2313929314461929 0.9922545928125288 0.4100221372036161 -0.5578053818499882
N 0.1510795017809088 2.2780818474992857 0.4274460451977281 0.0943160920587207
