25
s                      x[A]                      y[A]                      z[A]                      q[e]
N        1.8425114410640968        1.1186220888612053       -1.0912728154243283        0.1158659338886357
O        1.7816977735296129       -0.3836119115545620       -0.3572875462709068       -0.2341991647481463
N        3.3678728615979026       -0.3514513220637964        0.0228777267270144        0.0569852111266852
N        2.1658384067728615       -0.2897998117472947        0.0665680602527302        0.3189271149812888
O        1.9304193712480255        0.0598394265008801        0.2835597155456962       -0.2877498234141676
N        1.4320219234510965       -0.5889005928330002        0.3282900981808830        0.5692545008206258
O        0.6947945101880633       -0.5779106164364438        0.7686399777807846       -0.2058946535748549
O        1.1576289197537901       -0.5485493889587794        0.1941365118996316       -0.9992971180892700
N        0.6055009935356063       -0.5324338196589810        0.2828392481182125        0.6691943173322236
N        0.9745538529873279       -1.5904457066159843        1.2289417142105277        0.0628076875181509
N       -1.5713212453120038       -1.1927273425953133       -0.2603465336393537        0.7576134719858190
O       -1.3567526336961220       -0.9555681430604479       -0.1187750236525289       -0.9235083265987739
N       -1.1253463105316002       -0.5832316149688999       -0.1146885104597144        0.9955526175656415
O       -1.4487629523276473       -1.0414273751961660       -0.2704197964024490       -0.9936641819349231
O       -0.3310944775007852        0.1287434478373130       -0.0253065473303604       -0.9934394819660318
N       -0.6371656761231799       -0.1918671557216134        0.0587100347948278        0.8475065253219278
N       -0.1551076763230509        0.2994728518052939        0.1216863045754330        0.9207393412409772
O       -0.4949202504800278        0.3146234091937174        0.3225190512411952       -0.6738758902636315
N       -2.2152774486566282        1.5781558044243076       -0.1241964892535243        0.1207489421105395
N       -0.5520144978114457        0.9300248713055752        0.2204378445073173        0.4308753055723465
O       -0.8452793996045835        0.9460235681745651       -0.1341046896117079       -0.7095764258838037
N       -1.1233171291679160        0.8648809392125918       -0.0024437235635153        0.9977500474782615
O       -0.9975912970517806        0.9633730686444530        0.1751017666292774       -0.9963537733476465
O       -0.1773991195745153        2.2917180359143425        0.0163695180421167       -0.1586318904925156
N       -0.2621885744792592        2.2356892147050638        0.1633538875561681        0.3123697133706422

        RMSE         5.560706624E-01 kcal/mol

Coordinates in bohr
s                   x[bohr]                   y[bohr]                   z[bohr]                      q[e]
+        3.4818420066337752        2.1138893858352277       -2.0622067493092717        0.1158659338886357
-        3.3669208303089544       -0.7249214513014736       -0.6751756104888551       -0.2341991647481463
+        6.3643573337819728       -0.6641467451306492        0.0432326378871240        0.0569852111266852
+        4.0928414207986350       -0.5476422754116232        0.1257954025806351        0.3189271149812888
-        3.6479639189372679        0.1130801275911267        0.5358502025940923       -0.2877498234141676
+        2.7061292409739073       -1.1128608355741236        0.6203783752615301        0.5692545008206258
-        1.3129713377270582       -1.0920927900593860        1.4525190470836733       -0.2058946535748549
-        2.1876016132442611       -1.0366081114193333        0.3668648384419884       -0.9992971180892700
+        1.1442310464749066       -1.0061540990868780        0.5344887164738351        0.6691943173322236
+        1.8416398766557409       -3.0055068029144616        2.3223632640085619        0.0628076875181509
+       -2.9693668087530223       -2.2539280198502532       -0.4919836462906719        0.7576134719858190
-       -2.5638908976792765       -1.8057620845965519       -0.2244522652480553       -0.9235083265987739
+       -2.1265963231991427       -1.1021480199996909       -0.2167298745055657        0.9955526175656415
-       -2.7377652006089690       -1.9680125186751667       -0.5110193541026947       -0.9936641819349231
-       -0.6256778841280429        0.2432898568596875       -0.0478224436353171       -0.9934394819660318
+       -1.2040686244149741       -0.3625763767844182        0.1109458865783242        0.8475065253219278
+       -0.2931110282067260        0.5659216719218244        0.2299537888666142        0.9207393412409772
-       -0.9352637273502408        0.5945520760339764        0.6094726770883586       -0.6738758902636315
+       -4.1862676698639927        2.9822822536635289       -0.2346973504325273        0.1207489421105395
+       -1.0431562181457721        1.7574922966316999        0.4165671538050879        0.4308753055723465
-       -1.5973465647440890        1.7877254520783106       -0.2534211355056575       -0.7095764258838037
+       -2.1227617261628966        1.6343881062405385       -0.0046179682613718        0.9977500474782615
-       -1.8851743365681106        1.8205112563799006        0.3308943830131653       -0.9963537733476465
-       -0.3352357508931788        4.3307194446502342        0.0309339059053412       -0.1586318904925156
+       -0.4954645989900017        4.2248403174324549        0.3086941090099912        0.3123697133706422
