25
s                      x[A]                      y[A]                      z[A]                      q[e]
N -1.9505082720534332 1.2768238611554248 0.0257594020382715 0.1158659338886357
O -1.7184911227702899 -0.3454771765830661 0.5338272377186789 -0.2341991647481463
N -3.2579868820427849 -0.7175798019669459 0.2685109388580670 0.0569852111266852
N -2.0763063235307757 -0.5678262531925673 0.1011234717313855 0.3189271149812888
O -1.8613079339380447 -0.4030926973132066 -0.2339499694214973 -0.2877498234141676
N -1.2712727579184706 -0.9864256254037745 -0.0583096925243126 0.5692545008206258
O -0.7910718268747698 -0.5408367344690264 0.4644729136431092 -0.2058946535748549
O -1.0789331001938383 -0.7640475356885654 -0.1360707426382599 -0.9992971180892700
N -0.6480730802796807 -0.4335594733219100 -0.0239244107510564 0.6691943173322236
N -0.7264795972852762 -2.1715254614219202 0.0032182673550039 0.0628076875181509
N 0.5081135156576488 1.6429246822468269 -0.1249630499015470 0.7576134719858190
O 0.5030499668335968 1.2886861202827158 -0.0425810280350533 -0.9235083265987739
N 0.5901847553578894 0.8737968147854636 -0.1105827374496858 0.9955526175656415
O 0.5225667767117423 1.4427029841236525 -0.1718795737623413 -0.9936641819349231
O 0.4777883299023261 -0.1897257548406781 -0.2243695189609573 -0.9934394819660318
N 0.4863465428585781 0.2327311297118637 -0.0580952760790617 0.8475065253219278
N 0.4613431258559266 -0.4704154879360427 -0.1252447930292248 0.9207393412409772
O 0.7019310971537107 -0.2811968797808977 0.1368692289352255 -0.6738758902636315
N 2.8409640881519604 -0.0201117186179842 0.1977322678721951 0.1207489421105395
N 1.1770930781212776 -0.6826763846102295 -0.0692449191108597 0.4308753055723465
O 1.4456615201072944 -0.3874987419651943 -0.2242616245195749 -0.7095764258838037
N 1.5644235154879065 -0.2213916933363898 0.0263323971230099 0.9977500474782615
O 1.5137671386716656 -0.4378173326137822 0.1183608119352418 -0.9963537733476465
O 1.8929077748571115 -1.7803188264605132 -0.6009468296866579 -0.1586318904925156
N 1.8698371251801420 -1.7665783446497298 -0.4279741761242147 0.3123697133706422
