21
s                      x[A]                      y[A]                      z[A]                      q[e]
N -1.9181755141276862 1.4896476270934977 0.0690636349688719 0.0707249461841811
O -1.6207377520856916 -0.0532097729753958 0.3327508898213929 -0.3496602100029151
N -1.4976733929117811 0.1826809314857022 -0.1452684924834871 0.9824851761690530
N -3.0655439292608939 -0.5872664379189960 0.1030319846789631 0.1071394941056757
O -1.5581256002141193 0.0787635350553055 -0.2904627417574983 -0.8194842575378962
N -0.5165141677940392 -0.6520120260016079 -0.1341547486696530 0.3116552922920345
N -0.8160605242570141 -2.0049960352657243 -0.0235718265197721 0.0918298459672651
N -1.2871222481783786 -0.9788155117534656 -0.0202023482472313 0.5593901217632046
O -0.9832136574652245 -0.7983096386691312 -0.0493693719003378 -0.9963138680841535
N 0.7460292628242302 0.8377086719762533 -0.1297580755197375 0.9989733053171830
O 0.7103829498654564 0.9762053185578242 0.0207071913976322 -0.8354521971080898
N 0.5707961873250716 1.6963871758406270 -0.0517780816654171 0.2899344186932475
O 0.5675131676708922 1.3092091357212814 -0.0414861156797612 -0.8678253524624289
N 0.5068108082188832 -0.4452901945551665 -0.1248782411572535 0.9219570073558310
O 0.6219007640508605 -0.2723353009234519 -0.2914235031386423 -0.9704818863270434
O 0.7845883013520017 -0.3006553271643348 0.3630619078447450 -0.3320651923316272
N 0.6088578161936105 0.3004059257092186 -0.0573561678680109 0.9769593393400061
O 1.5293314057334624 -0.5030442404461601 -0.5687826772127180 -0.1970026432733326
O 1.5125805077537322 -0.5885454437362118 0.4036108404252754 -0.1946060569702309
N 2.7737650592533734 -0.0277528051122430 0.0353311752445976 0.1283355164991325
N 1.7127794099171458 -1.9077021816817232 -0.2164521070968215 0.1235072004109040
