21
s                      x[A]                      y[A]                      z[A]                      q[e]
N -0.0030493398524002 0.1433997206298868 -0.0759455394211944 0.0707249461841811
O 0.7511568124731779 -0.4856227131512167 -0.5983370498723191 -0.3496602100029151
N 0.8626350737601135 0.0193820244999610 0.5899884027525205 0.9824851761690530
N 1.4754882283361539 -0.5429348021236042 0.7791648596747049 0.1071394941056757
O 0.8504822743055486 0.1455314607820746 -0.6372128461815424 -0.8194842575378962
N -0.4203992150448244 0.1313952078345964 0.5619645892331443 0.3116552922920345
N -1.1191051652370605 -0.1079205114338539 0.3729518434963265 0.0918298459672651
N -0.0837669149120015 -0.1340451850564535 -0.0768805439608782 0.5593901217632046
O -0.1832840001204413 -0.0418773045400746 -0.4045922290572578 -0.9963138680841535
N 1.1393213799201525 0.4337015516063029 0.6335946101713423 0.9989733053171830
O 1.2856372044679507 0.5696876365749897 -0.4294988046507626 -0.8354521971080898
N 0.8430071486448911 -0.4708490064093909 -0.1376155559503950 0.2899344186932475
O 1.0956251009476565 -0.4176598008703051 0.1511380000814500 -0.8678253524624289
N -0.1399951173014362 0.3128682956988997 0.4053754226967018 0.9219570073558310
O 0.0412452170708720 0.5066755908154245 0.3833052842910688 -0.9704818863270434
O 0.1444223831905389 -0.1098894646783902 0.1287028165007666 -0.3320651923316272
N 0.5992138497868232 0.3074832475419621 0.5621447762958165 0.9769593393400061
O -0.0733252805160734 0.6749236682773929 0.5272832407700626 -0.1970026432733326
O 0.1242393100958644 -0.0393423588796602 -0.6517543169529081 -0.1946060569702309
N -0.1177317282822762 0.1489249422509227 0.2737054858280584 0.1283355164991325
N -0.8769386054389818 1.0432647549979650 -0.0267232297805122 0.1235072004109040
