21
s                      x[A]                      y[A]                      z[A]                      q[e]
N -0.0352173781491141 0.1095938859232142 0.1639944130020405 0.0690680479201058
O 0.7674672840034430 -0.5646247801446069 -0.2694955859048598 -0.3117950550350966
N 0.8086513963113273 -0.2433789974437375 -0.0599871866512871 0.5776243102962968
N 1.6508163262002975 -0.4711881236083849 0.9775042558459119 0.0604184539076988
O 0.8071119837709053 0.0976321696367241 -0.1614118174362629 -0.3968494342195521
O 0.2082829673773142 -0.1155049311483004 0.4287242057463859 -0.9828651838991298
N 0.1419261073467228 -0.0750842766837442 0.2383311628210227 0.7759263489545838
N -0.6161737047925461 -0.1179385682594523 0.0331898479851276 0.9970342621901004
O -0.5447959370808404 0.1545502332103129 0.0784290347078705 -0.3970377457969525
O -0.5735809300587617 -0.3954988444285925 0.0301262054734504 -0.3893757401670396
N -0.4337018323613738 0.4726405306550820 -1.0952490614867303 0.1691966627363242
O -0.2190175412663107 0.3876703791214539 -0.6509597574575563 -0.6800109224217911
O -0.3025401775656507 0.5512963224214150 -0.7956842607767771 -0.9821368279659007
N -0.2190239836883060 0.4110246233529078 -0.7281674198983608 0.8921713087406896
O 0.8145718211903173 -0.0692946772317060 0.6279433964721441 -0.3335771210350215
N 0.2438495006313290 0.3365770396828346 0.2223867323210706 0.9988617281482304
N -0.2495933789451085 1.0417528403588354 0.1531008511930060 0.0655379221577991
N 0.9299929702023252 0.6287770425050859 -0.3762330290280151 0.9908754307264420
O 1.0509962174037430 0.3636584753071792 -0.1268388330535994 -0.6595771554465193
O 1.0324015783381266 0.9892955516760680 -0.4735845897432017 -0.5578053818499882
N -0.0904984653702158 -0.3433352913157545 -0.0617480982925598 0.0943160920587207
