21
s                      x[A]                      y[A]                      z[A]                      q[e]
N       -2.0943188245416011        1.6212184259190032        0.0251370122566042        0.0690680479201058
O       -1.8692014740395446       -0.2644352654402665        0.4040907296163317       -0.3117950550350966
N       -1.9591179360454567       -0.3281834317340593        0.0629652733391514        0.5776243102962968
N       -3.3240839847255002       -0.5288128083312035        0.0972309996666605        0.0604184539076988
O       -1.8846904948203731       -0.2840932335218371       -0.2642225407521002       -0.3968494342195521
O       -0.9721479724548316       -0.1684955460693243        0.0782254985295793       -0.9828651838991298
N       -0.7273938747321210       -0.0105034761333594        0.0805308883988852        0.7759263489545838
N       -0.9647317665108633       -1.3565541509019494        0.0206162527504223        0.9970342621901004
O       -1.0684743962706609       -1.3890995290172743       -0.2736316154750897       -0.3970377457969525
O       -1.0898715477920036       -1.4027204439800711        0.2777801541657431       -0.3893757401670396
N        1.7851734467450628       -1.3034151691542186       -0.1991497980493350        0.1691966627363242
O        1.4051175175106578       -0.9494251280221334       -0.1511652110372322       -0.6800109224217911
O        0.3223818564271474        0.4012662954925036       -0.3858788152922690       -0.9821368279659007
N        0.2575341365476708        0.4611867947825473       -0.2517710986574138        0.8921713087406896
O        0.5678380610635055        0.4627801679811318        0.2757587103716125       -0.3335771210350215
N        0.8305454038325694       -0.1622746039716232       -0.1290129322461450        0.9988617281482304
N        2.2846930030511228        1.6697611932005074        0.2591856580316966        0.0655379221577991
N        1.1110246104520283        1.0572034712419476        0.1632689402915840        0.9908754307264420
O        0.9413820732554616        1.1273708678348582       -0.1831323241635601       -0.6595771554465193
O        0.9911758961243307        1.0824759204386456        0.5233282283613835       -0.5578053818499882
N       -0.1449680479865932        2.2361023543710021       -0.0607215336305537        0.0943160920587207

        RMSE         8.325985237E+00 kcal/mol

Coordinates in bohr
s                   x[bohr]                   y[bohr]                   z[bohr]                      q[e]
+       -3.9576889977743930        3.0636588145327570        0.0475020687772586        0.0690680479201058
-       -3.5322788592368100       -0.4997102295948472        0.7636208088112973       -0.3117950550350966
+       -3.7021963465981180       -0.6201768048902575        0.1189871220255877        0.5776243102962968
+       -6.2816083491517380       -0.9993113793801982        0.1837399602744698        0.0604184539076988
-       -3.5615488664641006       -0.5368584054520072       -0.4993082381940895       -0.3968494342195521
-       -1.8370934213587524       -0.3184104354304852        0.1478247682483089       -0.9828651838991298
+       -1.3745752085792879       -0.0198486932573320        0.1521813237137020        0.7759263489545838
+       -1.8230788232346600       -2.5635158195576748        0.0389590714315148        0.9970342621901004
-       -2.0191239810154480       -2.6250176708451076       -0.5170888125145076       -0.3970377457969525
-       -2.0595587372557089       -2.6507574697029441        0.5249284144607079       -0.3893757401670396
+        3.3734889007877440       -2.4630976974687613       -0.3763385762534788        0.1691966627363242
-        2.6552872821783375       -1.7941534685895686       -0.2856608485574038       -0.6800109224217911
-        0.6092134164639751        0.7582834018578649       -0.7292052785185164       -0.9821368279659007
+        0.4866689860313572        0.8715167348167375       -0.4757784227681353        0.8921713087406896
-        1.0730584190210239        0.8745277737777071        0.5211084393117947       -0.3335771210350215
+        1.5695033480013285       -0.3066545586234989       -0.2437991085874609        0.9988617281482304
+        4.3174440565164085        3.1553913500666351        0.4897899093264756        0.0655379221577991
+        2.0995322323978041        1.9978250195306122        0.3085335819448205        0.9908754307264420
-        1.7789542978685009        2.1304221820275959       -0.3460699373876915       -0.6595771554465193
-        1.8730509858302222        2.0455830270319182        0.9889470253240668       -0.5578053818499882
+       -0.2739499076368892        4.2256210382526413       -0.1147470684795235        0.0943160920587207
