23
s                      x[A]                      y[A]                      z[A]                      q[e]
N       -2.2506145795754362        0.7297166345851647        0.3977258604080406        0.2856065124296451
O       -2.1027335533452289        0.5882074977237931        0.3672659924938705       -0.2980193526493612
N       -2.2756492657982008       -1.2605845719631372        0.3166280534273405        0.9235469647741466
O       -2.2302261326526098       -1.1741961349267229        0.2934211995342879       -0.9987019282037162
O       -1.3689024891961972       -0.4027238009007133        0.1467999120556903       -0.9994297377915048
N       -1.3715553203517470       -0.8131687389936920        0.0960065033208882        0.3910255639585828
N       -1.9400208057538688       -0.5128844935120610        0.2312383500608193        0.3788084070601841
N       -1.3781392472186045        0.1492241263089747        0.1438093105506768        0.3521750120262308
N       -0.7791118676904435       -0.7314351994763173       -0.0913545723439995        0.5091785922378865
N       -0.6336860828231103       -0.0399599675261216       -0.0610878927151775        0.9946620798872232
O       -0.7477027945273734       -0.1600714402489838       -0.1041070572608381       -0.5088390984708862
O       -0.6408304909015905       -0.4038210686704218       -0.0882806374286441       -0.9513197152299744
N       -0.1304171416387397       -1.5418577427166262       -0.9506186482697737        0.0534150746794947
N        0.4983466019654652       -1.4027809186781204       -0.6410832687405028        0.0449830180293293
O       -0.6706489096412129       -0.1583453591605294        0.2584658714972187       -0.1594766348608674
O       -0.2915511121188238        1.6463442613546073       -0.3384514492345312       -0.2085098172073890
N       -0.1103984306285987        1.6231504348812720       -0.0655527635901760        0.7433887315217406
O       -0.0733821739689260        1.6011929569264827        0.0930427941064842       -0.4563903046399361
N        0.6165334869933563        0.3790177648189951       -0.5882114804071524        0.2740207269363132
N        1.3206694068989389        0.0992378584830767        0.1981991806215615        0.2947455612059413
O        1.7511203622552072       -0.4892025044171761        0.3800611822377656       -0.8294346811293033
N        1.9285282588478225       -0.3146162523578950        0.3470307897062406        0.8271270632704910
O        2.0087521317285408        0.0220466179397180        0.2661451899865491       -0.6625620378342709

        RMSE         1.821053750E+01 kcal/mol

Coordinates in bohr
s                   x[bohr]                   y[bohr]                   z[bohr]                      q[e]
+       -4.2530451693599876        1.3789645885567490        0.7515929491832677        0.2856065124296451
-       -3.9735905306332509        1.1115510756388278        0.6940321410078657       -0.2980193526493612
+       -4.3003538699577852       -2.3821595989878142        0.5983403046145023        0.9235469647741466
-       -4.2145165885524127       -2.2189091125826335        0.5544857065231181       -0.9987019282037162
-       -2.5868507970383061       -0.7610376879057548        0.2774116290265495       -0.9994297377915048
+       -2.5918639213793773       -1.5366662104819775        0.1814259975393362        0.3910255639585828
+       -3.6661080005648325       -0.9692112267319477        0.4369771513176929        0.3788084070601841
+       -2.6043057399877814        0.2819927300346884        0.2717602112316920        0.3521750120262308
+       -1.4723080510288737       -1.3822122055298547       -0.1726351220384830        0.5091785922378865
+       -1.1974931460498648       -0.0755133946065584       -0.1154393868130358        0.9946620798872232
-       -1.4129535048962041       -0.3024911825781664       -0.1967338259503399       -0.5088390984708862
-       -1.2109941206467005       -0.7631112234767957       -0.1668262269209789       -0.9513197152299744
+       -0.2464526797622605       -2.9136888581510432       -1.7964088949827974        0.0534150746794947
+        0.9417385932672729       -2.6508717503197770       -1.2114718015328301        0.0449830180293293
-       -1.2673427655588063       -0.2992293620506554        0.4884297099075200       -0.1594766348608674
-       -0.5509517534772258        3.1111397621793722       -0.6395805458175574       -0.2085098172073890
+       -0.2086227985684067        3.0673097823433748       -0.1238767699523163        0.7433887315217406
-       -0.1386722112919708        3.0258161626030451        0.1758253988086168       -0.4563903046399361
+        1.1650794375909594        0.7162397721910860       -1.1115586018196213        0.2740207269363132
+        2.4957034813098198        0.1875323738099569        0.3745421696648997        0.2947455612059413
-        3.3091378973748413       -0.9244587532365361        0.7182115453470944       -0.8294346811293033
+        3.6443902344284274       -0.5945385515743472        0.6557931496461443        0.8271270632704910
-        3.7959913828965286        0.0416620698986724        0.5029415186825190       -0.6625620378342709
