25
s                      x[A]                      y[A]                      z[A]                      q[e]
N 0.0675664363682825 -0.0078534540938402 0.2425433788089747 0.1158659338886357
O -0.1686801471875251 0.4320243281405879 0.3022241315878464 -0.2341991647481463
N -0.0819415194397408 -0.0085662830664789 -0.3914240490298513 0.0569852111266852
N -0.5167321871550751 -0.0214994151326720 0.1460214997029789 0.3189271149812888
O -0.2340163000811598 -0.3511884431167453 0.2688704962264934 -0.2877498234141676
N 0.0283173587153204 0.1192475431981667 -0.5561496363658893 0.5692545008206258
O -0.1565821972644824 -0.4978281238920194 0.0449738491738995 -0.2058946535748549
O -0.0628238044911298 0.1615304577850888 -0.2679666354245678 -0.9992971180892700
N -0.1893576032326296 -0.0147084439071835 0.2395544906094275 0.6691943173322236
N 0.0170170029920984 -0.0175042023064789 0.3843412590224418 0.0628076875181509
N 0.0584197134997466 0.0047312774552740 0.2895901184429890 0.7576134719858190
O 0.0356725327366397 -0.0752852148836950 -0.0554126957088104 -0.9235083265987739
N 0.1057304946136435 -0.0092410992762429 -0.4808542860471754 0.9955526175656415
O 0.0688173365032096 0.0510840772884158 0.0974125582540836 -0.9936641819349231
O -0.0415629274668014 0.1137337296418665 -0.1250959725318763 -0.9934394819660318
N -0.0286078662307246 -0.0513065447385543 0.2947487167375631 0.8475065253219278
N -0.0801834706963373 0.0214611934747275 -0.4009451971651677 0.9207393412409772
O 0.1556964421647923 -0.2561785777599440 -0.2277936666852833 -0.6738758902636315
N -0.0656523687767143 0.0233512688734182 0.2203771917623016 0.1207489421105395
N 0.2631785696748476 0.0752189335111893 -0.4874500483563792 0.4308753055723465
O 0.3498995870337804 -0.2106210536220375 -0.1275665471039849 -0.7095764258838037
N 0.4479355228068809 -0.0077326462351562 0.1029508387777236 0.9977500474782615
O 0.3061850517596089 0.1252674607260621 -0.0376383351410486 -0.9963537733476465
O -0.0314260827478779 -0.3698028325704635 -0.1417716348283071 -0.1586318904925156
N -0.0342603181404611 -0.2017990612751731 -0.0906720809907838 0.3123697133706422
