25
s                      x[A]                      y[A]                      z[A]                      q[e]
N 1.7590546564042548 1.0785468517539605 -1.0050507431047171 0.1158659338886357
O 1.7219278876955324 -0.4812701226571930 -0.4186053923314216 -0.2341991647481463
N 3.3067630965063710 -0.5311266423927792 -0.1232697090111912 0.0569852111266852
N 2.1011372830234785 -0.4493301534248815 -0.0042488075348827 0.3189271149812888
O 1.9136260475036249 -0.0858887251983478 0.2500908515833570 -0.2877498234141676
N 1.3541898072409557 -0.7402112001730679 0.5186279183239291 0.5692545008206258
O 0.9354306866328741 -0.3895792871625936 -0.1633219304291741 -0.2058946535748549
O 1.0842975656942753 -0.6103454804840218 0.5001939858590010 -0.9992971180892700
N 0.6959139723732307 -0.3051582232813324 0.2890314579869974 0.6691943173322236
N 0.9768822019117205 -1.8105498563119977 1.1295829214636703 0.0628076875181509
N -0.7088294353929158 1.5805656347806210 0.1187987400785199 0.7576134719858190
O -0.6327710574722358 1.2488889961183278 0.0529855360789624 -0.9235083265987739
N -0.6845308215739461 0.8077399887191247 0.0920106135683544 0.9955526175656415
O -0.6951844680456429 1.3879374098799080 0.1683239056925783 -0.9936641819349231
O -0.4810035585563998 -0.2093283314780947 0.2148072274655651 -0.9934394819660318
N -0.4979332895761852 0.1923547189698430 0.0673139342463005 0.8475065253219278
N -0.4063703031364524 -0.4783470484690387 0.1372297709614863 0.9207393412409772
O -0.6105253566858148 -0.3172756338763833 -0.1634231821734871 -0.6738758902636315
N -2.7571600068059419 -0.2661602198152799 -0.4836870208200267 0.1207489421105395
N -1.0399343887086445 -0.7640691584880093 -0.1589194453112596 0.4308753055723465
O -1.3850701254414941 -0.5429715317061488 0.0600977832053379 -0.7095764258838037
N -1.4814088555842713 -0.3504674631602623 -0.1543029537902970 0.9977500474782615
O -1.4030617178988438 -0.5212129106760134 -0.2727261875241784 -0.9963537733476465
O -1.6509654951978487 -2.0318402881834139 0.0603609654847328 -0.1586318904925156
N -1.6284481679580072 -1.9598326989339359 -0.0938322801001723 0.3123697133706422
