21
s                      x[A]                      y[A]                      z[A]                      q[e]
N -1.2486392456196198 0.3407245942732615 -1.9219167317397725 0.0707249461841811
O -1.3495183628655312 0.6405900184892669 -0.3749553214894994 -0.3496602100029151
N -1.3934351732074262 0.1224053724907384 -0.5436251571092544 0.9824851761690530
N -2.8557682442963981 1.0852079125551188 -0.3469651254925834 0.1071394941056757
O -1.5399717801824722 0.0355231759936021 -0.4612515029751341 -0.8194842575378962
N -0.7904986890768073 -0.0511917801744379 0.2899058663963751 0.3116552922920345
N -1.4526266099547864 0.4063228996049356 1.6686079415900050 0.0918298459672651
N -1.5335323141140922 0.2729173971955764 0.4816290961187016 0.5593901217632046
O -1.2121509735443288 0.1945774142335878 0.3824438187776291 -0.9963138680841535
N 1.1918659259461450 -0.0614655075155454 0.3739772159580824 0.9989733053171830
O 1.2489723788486722 0.0223627918208678 0.3705460582555981 -0.8354521971080898
N 1.4877449049126994 0.0228607316018462 1.3313759045754723 0.2899344186932475
O 1.4188914380583690 0.3724085917652458 0.5253123512104446 -0.8678253524624289
N 0.0715082273979903 -0.7055252840733229 0.2684055983895473 0.9219570073558310
O 0.2784257836625150 -0.6853389418174063 0.1110725904446919 -0.9704818863270434
O 0.3393488372724219 -0.8923771135907838 0.7506781664430968 -0.3320651923316272
N 0.6897418665898900 -0.3235756787566620 0.4001687354642535 0.9769593393400061
O 0.8967657817096143 0.7871199906970834 -1.0436558261347884 -0.1970026432733326
O 1.1665111690659651 -0.1749546383048132 -1.1500556642838682 -0.1946060569702309
N 2.3334839983856028 0.6591029301486490 -1.3132698033345911 0.1283355164991325
N -0.2804864327755856 -2.5862818432357169 0.2272445762837430 0.1235072004109040
