21
s                      x[A]                      y[A]                      z[A]                      q[e]
N        1.7199108902975520        0.3134608148155766       -1.7694792022569334        0.0707249461841811
O        1.6251585277655534       -0.1741281709419522       -0.2706581840887793       -0.3496602100029151
N        1.4767406952756161        0.3388060252485026       -0.3879790449987747        0.9824851761690530
N        3.1362712046089638        0.0198676731269673        0.1074609289859819        0.1071394941056757
O        1.5522673211000124        0.4618650877390220       -0.2656716123633467       -0.8194842575378962
N        0.6793155082299226        0.1223501468761553        0.2993371554954474        0.3116552922920345
N        1.0981845630362994       -0.2292574997311313        1.7991615637966116        0.0918298459672651
N        1.4579370198483759        0.0883384988638942        0.6270775062584391        0.5593901217632046
O        1.1265151807929559        0.0549341862547882        0.5048218499633780       -0.9963138680841535
N       -1.0211932100492882       -0.7241248881526230       -0.1999964748350549        0.9989733053171830
O       -1.0304507847747519       -0.8227347892054929       -0.2221434452930842       -0.8354521971080898
N       -1.1940159580548086       -1.5867646957308785       -0.1949832192035265        0.2899344186932475
O       -1.0526988576335223       -1.2312734099188178       -0.1329337327270290       -0.8678253524624289
N       -0.3421373160224778        0.3730051939070785        0.0434530115473180        0.9219570073558310
O       -0.4642785895753396        0.2665979676132007       -0.1679945023233278       -0.9704818863270434
O       -0.7703936215511112        0.3238030997763953        0.4309152370642807       -0.3320651923316272
N       -0.7202812740515754       -0.2779888064442211       -0.0213042480358007        0.9769593393400061
O       -1.0504652739836287        0.9423012224748214       -0.5284334928529676       -0.1970026432733326
O       -1.3201882239680598        0.8425745799961738        0.4343620297575952       -0.1946060569702309
N       -2.5101034821273904        0.9329385148366099       -0.3780741244912282        0.1283355164991325
N       -0.8249849585332573        2.2133750174724240        0.1555587385657759        0.1235072004109040

        RMSE         1.455395336E+00 kcal/mol

Coordinates in bohr
s                   x[bohr]                   y[bohr]                   z[bohr]                      q[e]
+        3.2501605428547165        0.5923550910642933       -3.3438310769592037        0.0707249461841811
-        3.0711045279291476       -0.3290545538071937       -0.5114698415415405       -0.3496602100029151
+        2.7906354723890892        0.6402505973746200       -0.7331741374643629        0.9824851761690530
+        5.9266936318706529        0.0375444609600866        0.2030717249707784        0.1071394941056757
-        2.9333601103771287        0.8727985227373019       -0.5020465866755213       -0.8194842575378962
+        1.2837202633307470        0.2312082690054732        0.5656652430599793        0.3116552922920345
+        2.0752680593441841       -0.4332338866990598        3.3999226110260179        0.0918298459672651
+        2.7551016756796041        0.1669355691868275        1.1850047462635169        0.5593901217632046
-        2.1288051678692974        0.1038105669464396        0.9539750385777473       -0.9963138680841535
+       -1.9297754881702833       -1.3683977192362393       -0.3779385634952723        0.9989733053171830
-       -1.9472697689873704       -1.5547434254846590       -0.4197902721695531       -0.8354521971080898
+       -2.2563631501497303       -2.9985507004767826       -0.3684648833547746        0.2899344186932475
-       -1.9893125335096780       -2.3267695303051359       -0.2512083476888949       -0.8678253524624289
+       -0.6465458245816974        0.7048776598576694        0.0821142911507875        0.9219570073558310
-       -0.8773593802112317        0.5037971443926254       -0.3174635999736783       -0.9704818863270434
-       -1.4558329535312058        0.6118991771516820        0.8143117813382247       -0.3320651923316272
+       -1.3611343412533117       -0.5253227101224840       -0.0402591940964863        0.9769593393400061
-       -1.9850916721330785        1.7806912381615192       -0.9985945770111854       -0.1970026432733326
-       -2.4947941773542133        1.5922351964654264        0.8208252755398182       -0.1946060569702309
+       -4.7434081277787961        1.7629982849325674       -0.7144565504106692        0.1283355164991325
+       -1.5589956292500393        4.1826725959533162        0.2939634123110109        0.1235072004109040
