21
s                      x[A]                      y[A]                      z[A]                      q[e]
N        1.7200930497715319        0.3130441022555625       -1.7692544961136465        0.0707249461841811
O        1.6247279667481578       -0.1722163028032069       -0.2715395262457654       -0.3496602100029151
N        1.4772756696149634        0.3360342329433365       -0.3864888431226913        0.9824851761690530
N        3.1363104633122325        0.0192746423986647        0.1076825480921789        0.1071394941056757
O        1.5515657370914737        0.4641723275528826       -0.2669745056754616       -0.8194842575378962
N        0.6795895099638055        0.1206957905699403        0.3002349367255908        0.3116552922920345
N        1.0982387769537441       -0.2298183768131037        1.7993645980847173        0.0918298459672651
N        1.4582341765363793        0.0859102901246501        0.6281687500177394        0.5593901217632046
O        1.1258830626219132        0.0575729723350870        0.5033570868121738       -0.9963138680841535
N       -1.0201931853489943       -0.7260787013006859       -0.1985438693832347        0.9989733053171830
O       -1.0310312340645258       -0.8207446930871539       -0.2232818153181984       -0.8354521971080898
N       -1.1933519280405129       -1.5875822710507468       -0.1942535180258675        0.2899344186932475
O       -1.0533843435404604       -1.2293360121762411       -0.1340656076999908       -0.8678253524624289
N       -0.3417339013503730        0.3706491934722086        0.0449761516540735        0.9219570073558310
O       -0.4646312977646960        0.2687547072437739       -0.1693581162179084       -0.9704818863270434
O       -0.7706150263546052        0.3250348147379096        0.4299869702541811       -0.3320651923316272
N       -0.7194940590033334       -0.2801821452394859       -0.0198501235632540        0.9769593393400061
O       -1.0504235067044023        0.9429527785509919       -0.5290074010305285       -0.1970026432733326
O       -1.3202434846169850        0.8432227065404626        0.4338244834250695       -0.1946060569702309
N       -2.5100426187534546        0.9326722818649289       -0.3777487888665256        0.1283355164991325
N       -0.8251195527909813        2.2130207324688613        0.1558809419680173        0.1235072004109040

        RMSE         1.455227061E+00 kcal/mol

Coordinates in bohr
s                   x[bohr]                   y[bohr]                   z[bohr]                      q[e]
+        3.2505047743716959        0.5915676184528282       -3.3434064438896831        0.0707249461841811
-        3.0702908855259712       -0.3254416466369763       -0.5131353368410646       -0.3496602100029151
+        2.7916464273746033        0.6350126690412046       -0.7303580640469218        0.9824851761690530
+        5.9267678200678713        0.0364237952996139        0.2034905243856594        0.1071394941056757
-        2.9320343087469900        0.8771585740912508       -0.5045086982061090       -0.8194842575378962
+        1.2842380515656864        0.2280819886728028        0.5673618037055268        0.3116552922920345
+        2.0753705088003427       -0.4342937907740336        3.4003062902246151        0.0918298459672651
+        2.7556632204362788        0.1623469196942130        1.1870668981047097        0.5593901217632046
-        2.1276106376471011        0.1087971499418748        0.9512070373833089       -0.9963138680841535
+       -1.9278857153680351       -1.3720898909863968       -0.3751935370229853        0.9989733053171830
-       -1.9483666591747593       -1.5509826888576617       -0.4219414797464495       -0.8354521971080898
+       -2.2551083152836275       -3.0000956939182672       -0.3670859479755750        0.2899344186932475
-       -1.9906079141366519       -2.3231083791755855       -0.2533472813960527       -0.8678253524624289
+       -0.6457834813364279        0.7004254642843057        0.0849926088032560        0.9219570073558310
-       -0.8780259020913214        0.5078727916183297       -0.3200404567753046       -0.9704818863270434
-       -1.4562513479726702        0.6142267810935730        0.8125576112957841       -0.3320651923316272
+       -1.3596467204102953       -0.5294675197458762       -0.0375112970910472        0.9769593393400061
-       -1.9850127434143350        1.7819225007008594       -0.9996791062879361       -0.1970026432733326
-       -2.4948986048461967        1.5934599781287717        0.8198094601916003       -0.1946060569702309
+       -4.7432931126709859        1.7624951775305235       -0.7138417551811267        0.1283355164991325
+       -1.5592499755351970        4.1820030943262259        0.2945722884979379        0.1235072004109040
