30
s                      x[A]                      y[A]                      z[A]                      q[e]
N -1.7068390485824414 1.7237233397938403 -0.3672592162234493 0.2137068255539760
N -1.4722706694780214 1.0089047350294524 0.0146042603022210 0.4524136045707061
O -1.3487149945077905 1.2830346374341230 0.4844066300245624 -0.5303393512711568
N -1.0397315711079593 1.6970535648493315 0.8823421230491721 0.2065219334641430
N -3.1190555728578260 1.5602555911173683 0.1938013662928683 0.0640972179527254
N -1.3594890384784595 1.7268947175255838 -1.0684912843996788 0.2729192555687945
O -1.5704247846385071 1.5595535525719610 -0.6360923659658271 -0.5760168259183410
O -2.7820011986216162 -0.8201313080334723 0.0984742578350125 -0.7855321009151053
O -2.4395180279784974 -1.2539139668646242 0.0489057595832269 -0.7445427033607991
N -2.6172045959969159 -1.0673637618260334 0.0491640073505729 0.9977538426035523
N -1.7852091285577498 0.0929634954550719 -0.0382269949709390 0.2084365764815679
N -1.4203560102761463 -0.6082240005989576 -0.0697640375619724 0.3300899125146088
N 0.0400429246464908 -0.7688964931655733 0.0816453437207418 0.6266498413516267
O -0.0356023224570322 -0.3571690382135033 -0.1620792419965264 -0.5811225412727979
N -0.1178142417565672 -1.2794373868106048 -1.3998610571382253 0.5003074335780895
O -0.1491153049155542 -1.2332295487965907 -1.1530221633166411 -0.5967490130385100
N -0.1095394672090718 -1.6027485745246799 0.2714411899072798 0.9708061175491041
O -0.0523004563350489 -1.5112539126115860 0.6386339561551100 -0.1568654630532827
O -0.1383593809384557 -1.6573200072778476 0.1955433651431913 -0.7813807259506527
N 0.6711985706619629 0.0891141840606137 0.3753017910025914 0.1400529194232831
N 0.7879998652605590 0.2554728360195689 -0.2766689160521558 0.1778327620465852
N 1.1289096700416659 0.6370335000394698 -0.5548806541894238 0.7120624373414439
O 1.1370318967269430 0.7645611586017291 -0.6566826264108729 -0.9970019554920370
N 1.7729065441698311 -0.5481170223773141 -0.1531074709960486 0.9931708722557875
N 2.4094079528099765 -0.9919922860162497 -0.2150005820649394 0.8506195801821621
O 2.1323366630422127 -0.9167421199293936 -0.1808156879291460 -0.8089940633040810
O 2.2959701627483220 -0.8387650521853389 -0.1623229198841240 -0.9883399134133223
N 1.1291275276264625 0.6668918567639986 1.6800495321579976 0.2529889584625400
N 1.1689483168911001 0.3825266807914995 0.8845074868401874 0.5419198115726583
O 1.1086375941176250 0.4727531755202949 1.3029000735883929 -0.9654652454832693
