30
s                      x[A]                      y[A]                      z[A]                      q[e]
N -1.7062301837536191 1.7258827097439733 -0.3561176632668652 0.2137068255539760
N -1.4497720192181982 1.0110295238698250 0.0567667462941528 0.4524136045707061
O -1.3912049650364275 1.3085268614550867 0.4505156163599162 -0.5303393512711568
N -1.0009956470237016 1.6815590574496795 0.9199987732527934 0.2065219334641430
N -3.1166858378624758 1.5604818595386938 0.1916907632587545 0.0640972179527254
N -1.3783451898831474 1.7382738749528701 -1.0624111926766471 0.2729192555687945
O -1.5670051473974957 1.5720450684527734 -0.6698608527693222 -0.5760168259183410
O -2.8055403980265399 -0.8293201175309659 0.0945883497420804 -0.7855321009151053
O -2.4373868000939152 -1.2961665377244493 0.0382907410505750 -0.7445427033607991
N -2.6549488182354923 -1.0579304864954189 0.0621381171904042 0.9977538426035523
N -1.7736503232720096 0.1006026385070289 -0.0170241453656864 0.2084365764815679
N -1.4087383642272755 -0.5771343803476057 -0.0335028209785677 0.3300899125146088
N -0.2218507365836307 -1.0037408749008185 -0.8131158582640332 0.6266498413516267
O -0.0606717945727599 -0.3775722180614870 -0.2707356924724271 -0.5811225412727979
N -0.1371023575848854 -1.2900366839678670 -1.3599997236396626 0.5003074335780895
O -0.1236125162664590 -1.2374155551061219 -1.2322374821103790 -0.5967490130385100
N -0.1214580950926147 -1.6706610146809295 0.3211953447073941 0.9708061175491041
O -0.0470454037330663 -1.4975403031996346 0.6316679723295069 -0.1568654630532827
O -0.1227486591659757 -1.6450210116654065 0.1646523825827262 -0.7813807259506527
N 0.6705461220132254 0.0842671301123909 0.3785451886427464 0.1400529194232831
N 0.7871354958297915 0.2547502060314588 -0.2706029247191571 0.1778327620465852
N 1.1448965060403469 0.6407430722271092 -0.5435183658372660 0.7120624373414439
O 1.1468038910531482 0.7783597986626329 -0.6855202777308042 -0.9970019554920370
N 1.7900294409992057 -0.5644963220702260 -0.1338748331064706 0.9931708722557875
N 2.4348830067980662 -1.0096188953143723 -0.2064658094439262 0.8506195801821621
O 2.1472740018713177 -0.9306776728808754 -0.2030714469519884 -0.8089940633040810
O 2.3171487383086049 -0.8532798798765304 -0.1812079123926710 -0.9883399134133223
N 1.1367677963116811 0.6621482648894845 1.6934915169498923 0.2529889584625400
N 1.1786226249925091 0.3733015921583877 0.9036504314561908 0.5419198115726583
O 1.1235232599655158 0.4968121565888036 1.3116574988141410 -0.9654652454832693
