30
s                      x[A]                      y[A]                      z[A]                      q[e]
N       -1.7056701093126623        1.7228181336334119       -0.3657760443209084        0.2137068255539760
N       -1.4722014065063262        1.0090597288815455        0.0145177648202489        0.4524136045707061
O       -1.3471327095541161        1.2804690263693859        0.4825496903982322       -0.5303393512711568
N       -1.0408935793882765        1.6984987119227115        0.8832581373243303        0.2065219334641430
N       -3.1188916625999386        1.5598977067923649        0.1950186966003466        0.0640972179527254
N       -1.3570561877997980        1.7245138537384250       -1.0674044858677221        0.2729192555687945
O       -1.5724469918059265        1.5602468032574301       -0.6364759124887599       -0.5760168259183410
O       -2.7806120964012329       -0.8220994385803232        0.0982946088318345       -0.7855321009151053
O       -2.4405281783475696       -1.2543478844242260        0.0517509580780140       -0.7445427033607991
N       -2.6142888511595999       -1.0631564164350993        0.0475095502142288        0.9977538426035523
N       -1.7851736019064879        0.0933362558648915       -0.0394154983013080        0.2084365764815679
N       -1.4201099774763479       -0.6082671503476514       -0.0747777947599525        0.3300899125146088
N        0.0378714455699034       -0.7698660621780358        0.0714912241096986        0.6266498413516267
O       -0.0334163170184401       -0.3563168231503623       -0.1537840204956616       -0.5811225412727979
N       -0.1215429940385188       -1.2821255167606624       -1.4058831449835896        0.5003074335780895
O       -0.1456668528819544       -1.2281001654810446       -1.1438852665456545       -0.5967490130385100
N       -0.1119075468924049       -1.6068561634432215        0.2584196250263551        0.9708061175491041
O       -0.0517194598826558       -1.5088638850301621        0.6443563688956262       -0.1568654630532827
O       -0.1365418001439196       -1.6493713172563942        0.2052336952408936       -0.7813807259506527
N        0.6706136196434682        0.0897164808674965        0.3728972150001408        0.1400529194232831
N        0.7865006566502661        0.2554031979828133       -0.2788831795120540        0.1778327620465852
N        1.1239575334601348        0.6358879139379970       -0.5573307308767527        0.7120624373414439
O        1.1402336010226160        0.7637608687599974       -0.6525189077156491       -0.9970019554920370
N        1.7696009421145706       -0.5478227683006675       -0.1549446530865241        0.9931708722557875
N        2.4065769573608411       -0.9910400803995457       -0.2136209356661733        0.8506195801821621
O        2.1328833913660348       -0.9153844119910751       -0.1800151859927638       -0.8089940633040810
O        2.2955215597289191       -0.8375842408205335       -0.1623111618457516       -0.9883399134133223
N        1.1285968292644402        0.6685336920649525        1.6763599283075847        0.2529889584625400
N        1.1680585742820708        0.3839104938596825        0.8791637151831769        0.5419198115726583
O        1.1075598839115393        0.4690009453618528        1.3077331048491327       -0.9654652454832693

        RMSE         1.285684259E+00 kcal/mol

Coordinates in bohr
s                   x[bohr]                   y[bohr]                   z[bohr]                      q[e]
+       -3.2232493669806477        3.2556544365395541       -0.6912165470198411        0.2137068255539760
+       -2.7820574598107650        1.9068465318148495        0.0274345994640768        0.4524136045707061
-       -2.5457118757032058        2.4197357719697772        0.9118867567771258       -0.5303393512711568
+       -1.9670037907913380        3.2096973899768173        1.6691159776250051        0.2065219334641430
+       -5.8938510572877059        2.9477794495672871        0.3685319259184087        0.0640972179527254
+       -2.5644645317994832        3.2588588831234615       -2.0171021433751157        0.2729192555687945
-       -2.9714941613132306        2.9484391462776256       -1.2027651600546199       -0.5760168259183410
-       -5.2545953233334703       -1.5535427868094500        0.1857498903011755       -0.7855321009151053
-       -4.6119298585394040       -2.3703739676092161        0.0977951374974959       -0.7445427033607991
+       -4.9402899415294277       -2.0090744555855293        0.0897800382485786        0.9977538426035523
+       -3.3734891940003426        0.1763799611603018       -0.0744844968879203        0.2084365764815679
+       -2.6836189254603826       -1.1494583252697417       -0.1413095523620058        0.3300899125146088
+        0.0715666601023007       -1.4548360108011749        0.1350988339410580        0.6266498413516267
-       -0.0631476872863274       -0.6733412096473763       -0.2906096812085938       -0.5811225412727979
+       -0.2296829712009541       -2.4228660851387422       -2.6567341084163050        0.5003074335780895
-       -0.2752704575042511       -2.3207729673886122       -2.1616298727176146       -0.5967490130385100
+       -0.2114746149984746       -3.0365180719115896        0.4883423167433187        0.9708061175491041
-       -0.0977356145348226       -2.8513395033012943        1.2176570644072067       -0.1568654630532827
-       -0.2580266069490064       -3.1168600688002002        0.3878354757209666       -0.7813807259506527
+        1.2672760771281009        0.1695395777794456        0.7046736092962309        0.1400529194232831
+        1.4862708385617451        0.4826420957536004       -0.5270128302746738        0.1778327620465852
+        2.1239719148847578        1.2016540038315120       -1.0532024426583053        0.7120624373414439
-        2.1547292249772951        1.4432988672981346       -1.2330820272654677       -0.9970019554920370
+        3.3440611319486901       -1.0352349973784019       -0.2928029589376045        0.9931708722557875
+        4.5477713492495910       -1.8727943313068480       -0.4036850630731137        0.8506195801821621
-        4.0305654672194891       -1.7298258381763867       -0.3401793999496758       -0.8089940633040810
-        4.3379070629714409       -1.5828048221503233       -0.3067236429933306       -0.9883399134133223
+        2.1327389133698804        1.2633455836439196        3.1678611521934545        0.2529889584625400
+        2.2073108038858527        0.7254856900840592        1.6613786411362146        0.5419198115726583
-        2.0929848481366751        0.8862833393147127        2.4712574133594876       -0.9654652454832693
