25
s                      x[A]                      y[A]                      z[A]                      q[e]
N 1.9874197051715063 1.3580153586047516 -0.4974340033152957 0.1158659338886357
O 1.8183359615428698 -0.3145757094912319 -0.4404204184821697 -0.2341991647481463
N 3.3491683075435894 -0.5302213557609701 0.0324030028219538 0.0569852111266852
N 2.1524287621416582 -0.4039978414152797 0.0641133813137413 0.3189271149812888
O 1.9178352341961231 -0.1459500128593668 0.3187048596988529 -0.2877498234141676
N 1.3901082336446726 -0.7501823843863925 0.0509629565688509 0.5692545008206258
O 0.7112585849828554 -0.6950264694790762 0.6157311050017041 -0.2058946535748549
O 1.0944618084411215 -0.7158830892827441 -0.0114939877807003 -0.9992971180892700
N 0.5646631668725037 -0.6255209764056212 0.1141133594016455 0.6691943173322236
N 0.8467226890566025 -1.9628555989156693 0.5431527226877739 0.0628076875181509
N -1.7176189771854786 -1.0947384904455195 -0.1346228749319485 0.7576134719858190
O -1.4623323575454452 -0.8658127871374486 -0.0192967353728184 -0.9235083265987739
N -1.2053539636049329 -0.5234692892149342 -0.0507178965979949 0.9955526175656415
O -1.5827401382488653 -0.9440831597161369 -0.1609396002658011 -0.9936641819349231
O -0.3372950465366861 0.1210012422375277 -0.0663294576590445 -0.9934394819660318
N -0.6616977242529374 -0.1750511968533476 0.0555099036353545 0.8475065253219278
N -0.1231650118508403 0.2776630255664854 0.0497468946537067 0.9207393412409772
O -0.4362985340365084 0.3192534040205820 0.3049247023690100 -0.6738758902636315
N -2.0911724272566645 1.7174952268613182 -0.0370563529365515 0.1207489421105395
N -0.4517093172661937 0.9468948450479800 0.1535467945096489 0.4308753055723465
O -0.7873133620345691 0.9772861983444256 -0.1699769376372665 -0.7095764258838037
N -1.0571169716725017 0.9211721262464985 -0.0018916192835838 0.9977500474782615
O -0.9020021474633846 1.0202305607414086 0.1594272813376016 -0.9963537733476465
O -0.0072308836093725 2.2698311867481715 -0.1546042148925885 -0.1586318904925156
N -0.0599206612946330 2.2207063783337566 0.0042426797160204 0.3123697133706422
