21
s                      x[A]                      y[A]                      z[A]                      q[e]
N -0.1364440496054803 -1.3618511364098698 -0.1921767266968579 0.0690680479201058
O -0.4629125869255523 0.2660133913485302 0.4855421559963841 -0.3117950550350966
N -0.4220804499383713 -0.0265751373373295 0.2416506693603286 0.5776243102962968
N 0.0644885722900484 0.0492607667024012 -0.4562707871004402 0.0604184539076988
O -0.1422150705924341 -0.2264561105350430 0.1586111302976665 -0.3968494342195521
O -0.2760699850511854 0.3199149893594908 0.0915497589268734 -0.9828651838991298
N -0.3769209839595395 0.2962641890727368 0.2838865141972491 0.7759263489545838
N 0.8889817150962219 0.3754202385895747 -0.2896498247096053 0.9970342621901004
O 0.9097027692872134 0.6517469115185425 -0.2447610286690781 -0.3970377457969525
O -0.2025378550406416 -0.6974496109167163 -0.4589896348495434 -0.3893757401670396
N -0.4344754195891082 0.2283042753404882 0.0760460052755953 0.1691966627363242
O -0.0217365099386936 0.1663932283542438 -0.1064058910723982 -0.6800109224217911
O -0.1135674793384291 0.4906633634321977 0.4578809838572475 -0.9821368279659007
N -0.2973026564858937 0.4031232293816359 0.5083290445098660 0.8921713087406896
O -0.0736581564646535 -0.2020981954431982 0.5553585134763875 -0.3335771210350215
N 0.3074881054149642 0.1356159333346134 -0.0076417441036546 0.9988617281482304
N 1.4758097475760654 -0.1894408677857635 0.6366387860891762 0.0655379221577991
N 0.3971736882380241 0.0189290024766367 -0.1376405043569183 0.9908754307264420
O 0.3395486820017054 0.3901079264435032 -0.1685489113273087 -0.6595771554465193
O 0.2510535870534882 -0.3238165631756784 -0.1125716174658291 -0.5578053818499882
N -0.9731904953250298 0.3274932335413963 0.8294083042115233 0.0943160920587207
