11

C  0.79068  1.32257 -0.03814
C  0.59614 -0.17188 -0.01458
H  0.41886  1.73701 -0.98037
H  1.85378  1.53826  0.06249
H  0.25503  1.81301  0.78183
O -0.66519 -0.63650 -0.32853
O  1.50002 -0.97888  0.15273
C -1.84698  0.05427  0.16899
H -1.82787  0.10063  1.26113
H -2.68546 -0.55485 -0.16056
H -1.93198  1.05920 -0.25574
