25
s                      x[A]                      y[A]                      z[A]                      q[e]
N -1.9055693601993144 1.2751786949831410 0.3658340892727823 0.1158659338886357
O -1.7351537186336887 -0.4067418246585192 0.4659176333512625 -0.2341991647481463
N -3.2857538361849334 -0.6613669979448106 0.0863379077876334 0.0569852111266852
N -2.0942436777582110 -0.5265680170017562 -0.0046078399081331 0.3189271149812888
O -1.8702168122153582 -0.3053639174412691 -0.2980856657314033 -0.2877498234141676
N -1.2844327475983417 -0.9475634350166890 -0.2649582258848665 0.5692545008206258
O -0.8615093685789760 -0.5163317952765721 0.3698007680547220 -0.2058946535748549
O -1.0755528248426585 -0.7297943391911589 -0.3053924849531573 -0.9992971180892700
N -0.6606118663676503 -0.4139207384976460 -0.0990415299232667 0.6691943173322236
N -0.7939602202536333 -2.1212172155284135 -0.4126279541803254 0.0628076875181509
N 0.5558345574869070 1.6265736928118808 -0.0638484250392508 0.7576134719858190
O 0.5327920086011642 1.2738342472385560 0.0161611925972007 -0.9235083265987739
N 0.6151506259673083 0.8566097450283316 -0.0414794529345455 0.9955526175656415
O 0.5709364643956452 1.4266683475770709 -0.1092877517326426 -0.9936641819349231
O 0.4871187575283065 -0.2036033261761568 -0.1687450953576913 -0.9934394819660318
N 0.4885630945298167 0.2178320614215064 -0.0023575182139619 0.8475065253219278
N 0.4511432442948824 -0.4838086622776551 -0.0730130884359263 0.9207393412409772
O 0.6657983696947489 -0.3011579485755602 0.2145624247060948 -0.6738758902636315
N 2.8348491955092099 -0.0538530612603801 0.2266602506870060 0.1207489421105395
N 1.1411421419785031 -0.7148872900211444 0.1136969031361855 0.4308753055723465
O 1.4329885988163413 -0.4552521567513332 -0.1495930701857487 -0.7095764258838037
N 1.5551740263921185 -0.2470963069885976 0.0641001642402047 0.9977500474782615
O 1.4972170021488276 -0.4383526646879090 0.1961118380787522 -0.9963537733476465
O 1.8367754889001136 -1.9088435445385901 -0.2361422523853924 -0.1586318904925156
N 1.8130205252229137 -1.8602533909715853 -0.0696726065881953 0.3123697133706422
