25
s                      x[A]                      y[A]                      z[A]                      q[e]
N 1.9344379605784268 1.2972744469926947 -0.0035326313774239 0.1158659338886357
O 1.7772981238228702 -0.3368061015019241 -0.4400634616220613 -0.2341991647481463
N 3.2848162489635544 -0.6804468178292774 -0.0061338171953603 0.0569852111266852
N 2.0903020864808761 -0.5452346235486361 0.0325382442696729 0.3189271149812888
O 1.8388324683328219 -0.3774652969239246 0.3395346314077313 -0.2877498234141676
N 1.2784465622289918 -0.9727720374808619 0.1148305057162218 0.5692545008206258
O 0.8263605091228243 -0.5374855960234115 -0.4971030739125589 -0.2058946535748549
O 1.0758200626028502 -0.7520174723553789 0.1671510515406796 -0.9992971180892700
N 0.6544923894792417 -0.4296768103054364 -0.0182269408398412 0.6691943173322236
N 0.7587146513941050 -2.1670922808223367 0.0207658244376128 0.0628076875181509
N -0.5330432820617663 1.6299694039733579 0.0046229887241576 0.7576134719858190
O -0.5195707306103430 1.2758280304966010 -0.0753760683645461 -0.9235083265987739
N -0.6039006641908973 0.8596981776797085 -0.0099217471371481 0.9955526175656415
O -0.5485866353387109 1.4302460200233993 0.0517157463030328 -0.9936641819349231
O -0.4826739416582003 -0.2017988445224932 0.1161546278897864 -0.9934394819660318
N -0.4878427906906536 0.2194160351986508 -0.0526760382798919 0.8475065253219278
N -0.4557443432080189 -0.4828740860848986 0.0198806292839149 0.9207393412409772
O -0.6842656024117458 -0.2986357093015517 -0.2567293506426073 -0.6738758902636315
N -2.8512201438645355 -0.0221681669369293 -0.0228460954063697 0.1207489421105395
N -1.1638213277644047 -0.7068411072828188 -0.0756422033000559 0.4308753055723465
O -1.4232959009351693 -0.4378386597976445 0.2119629192981619 -0.7095764258838037
N -1.5647317195208665 -0.2314418737938733 0.0079242455900039 0.9977500474782615
O -1.5238790794644212 -0.4264977933861434 -0.1261607511112550 -0.9963537733476465
O -1.8341615057388738 -1.8836009952272033 0.3707044262412474 -0.1586318904925156
N -1.8277063090356940 -1.8386752644560460 0.2016899294331116 0.3123697133706422
