21
s                      x[A]                      y[A]                      z[A]                      q[e]
N -1.9144700142949334 1.0332105412597130 -1.6435450767314310 0.0690680479201058
O -1.9438150288957281 0.2736248665229014 0.1466806054260280 -0.3117950550350966
N -2.0387872222866275 -0.0618026055620568 -0.0111159577907355 0.5776243102962968
N -3.3930439024883032 -0.1300092741798950 -0.0230677257096519 0.0604184539076988
O -1.8636112632782929 -0.2788137023901488 -0.2283749943825828 -0.3968494342195521
O -0.7410679318928923 -0.7305807293696204 0.2787386634337897 -0.9828651838991298
N -0.5286974632777746 -0.7618394763184672 0.2213728006824346 0.7759263489545838
N -1.2053691979830357 -0.6660242194664701 0.9521258279224788 0.9970342621901004
O -1.1807172397741925 -0.8957712200569441 0.7927396743167325 -0.3970377457969525
O -1.2799334809481513 -0.4606492295027785 1.1177143149547657 -0.3893757401670396
N 0.9354561071099750 1.7138872883020868 0.2784409250873670 0.1691966627363242
O 0.8250013449718461 1.2853538089393437 0.2049125169453399 -0.6800109224217911
O 0.7088306702428033 -0.4422929926494418 0.3240458840321831 -0.9821368279659007
N 0.5933814877811421 -0.5930080290137943 0.2202373907330756 0.8921713087406896
O 0.7182117148683760 -0.3615242110793993 -0.3722191869045690 -0.3335771210350215
N 0.6928113758042582 0.2291021466291510 0.0926330696757296 0.9988617281482304
N 2.8263346908944218 -0.4383157742375439 -0.6359329615278111 0.0655379221577991
N 1.5393866694014862 -0.6098972865827164 -0.2947457810187434 0.9908754307264420
O 1.5165978128866300 -0.6842268449193798 0.0740784891469556 -0.6595771554465193
O 1.3983473581693142 -0.6488130932308311 -0.6373411159571682 -0.5578053818499882
N 1.1464374694193085 -2.2639733896843603 -0.2496585084979490 0.0943160920587207
