21
s                      x[A]                      y[A]                      z[A]                      q[e]
N       -1.9700457655511474        1.4131871134151144        0.2211121707315698        0.0707249461841811
O       -1.6168123843341089       -0.1040632330875682        0.3110817140361770       -0.3496602100029151
N       -1.4938748009303733        0.1347676624869456       -0.1299982909326808        0.9824851761690530
N       -3.0337408291000183       -0.6961762310152975        0.0560903403860972        0.1071394941056757
O       -1.5658196534879916        0.0719440433906409       -0.2996162607189320       -0.8194842575378962
N       -0.4855466339950094       -0.6407872488666597       -0.1808308223533917        0.3116552922920345
N       -0.7338562245331504       -2.0168553648867249       -0.1739891477356243        0.0918298459672651
N       -1.2497865200008771       -0.9893429362894360       -0.1125640274557019        0.5593901217632046
O       -0.9358522099976314       -0.8277713928035313       -0.1232023103613027       -0.9963138680841535
N        0.7167997440641993        0.8817205278744389       -0.1069123147585888        0.9989733053171830
O        0.6962776628946208        0.9788939352109844       -0.1219116897981666       -0.8354521971080898
N        0.5030421772117400        1.7297961643951689       -0.0348721259362998        0.2899344186932475
O        0.5201545658195033        1.3447801004329991       -0.0244364062359983       -0.8678253524624289
N        0.5298517760224453       -0.3987151676233353       -0.1079092873359026        0.9219570073558310
O        0.6522443435811653       -0.2352101102409518       -0.2648373964618594       -0.9704818863270434
O        0.7742139703431983       -0.2520258744779237        0.3959663788510246       -0.3320651923316272
N        0.5967146853003903        0.3443271669306617       -0.0405542056022352        0.9769593393400061
O        1.5437190220510784       -0.5468123195215986       -0.4747825440050112       -0.1970026432733326
O        1.4877199153118574       -0.5064824096210928        0.5269590947036390       -0.1946060569702309
N        2.7698511311079166        0.0192076949958968        0.1058425542365676        0.1283355164991325
N        1.7275963459340136       -1.8901489654106229        0.0561850926301185        0.1235072004109040

        RMSE         5.903996624E-01 kcal/mol

Coordinates in bohr
s                   x[bohr]                   y[bohr]                   z[bohr]                      q[e]
+       -3.7228469515095708        2.6705366083808766        0.4178414456881392        0.0707249461841811
-       -3.0553326026399286       -0.1966510102651851        0.5878592421663648       -0.3496602100029151
+       -2.8230142394812385        0.2546739726684640       -0.2456611666403544        0.9824851761690530
+       -5.7329393026183970       -1.3155824116723720        0.1059953816134302        0.1071394941056757
-       -2.9589703069515814        0.1359545383663658       -0.5661926754925498       -0.8194842575378962
+       -0.9175501593884793       -1.2109124050435740       -0.3417207292892278        0.3116552922920345
+       -1.3867872798301402       -3.8113042742962251       -0.3287918380221510        0.0918298459672651
+       -2.3617542380906800       -1.8695871937433068       -0.2127151834697922        0.5593901217632046
-       -1.7685043707999697       -1.5642612268874472       -0.2328186246065175       -0.9963138680841535
+        1.3545552030796022        1.6662103168767943       -0.2020349943324757        0.9989733053171830
-        1.3157740901446835        1.8498414434204200       -0.2303797052103060       -0.8354521971080898
+        0.9506119444842116        3.2688410035742947       -0.0658987674320812        0.2899344186932475
-        0.9829496723052887        2.5412660887840404       -0.0461781152764665       -0.8678253524624289
+        1.0012747437698444       -0.7534624688741139       -0.2039189994581908        0.9219570073558310
-        1.2325631762474201       -0.4444826902941425       -0.5004701470922083       -0.9704818863270434
-        1.4630523664519739       -0.4762598792922878        0.7482680109177133       -0.3320651923316272
+        1.1276273302564939        0.6506840430537502       -0.0766363418237321        0.9769593393400061
-        2.9172061663361317       -1.0333255259221585       -0.8972089773176007       -0.1970026432733326
-        2.8113831913287246       -0.9571130415458123        0.9958083683090725       -0.1946060569702309
+        5.2342600460835458        0.0362972830435717        0.2000134399260289        0.1283355164991325
+        3.2646839491569852       -3.5718638809435390        0.1061744374044030        0.1235072004109040
