21
s                      x[A]                      y[A]                      z[A]                      q[e]
N       -1.8504944639425820        1.5428138919448551        0.1953194856854662        0.0707249461841811
O       -1.6342630869002095       -0.0298550721401100        0.2881203441524977       -0.3496602100029151
N       -1.4911077178141796        0.2322790918637733       -0.1133516083166469        0.9824851761690530
N       -3.0866040352396125       -0.4838494224645141       -0.0427316484869761        0.1071394941056757
O       -1.5374115809374431        0.1430828907985621       -0.3205213508928482       -0.8194842575378962
N       -0.5510684336048880       -0.6482352889229355       -0.1363699267869740        0.3116552922920345
N       -0.8919828530748297       -1.9845361117633762       -0.1735299485612972        0.0918298459672651
N       -1.3215201984978624       -0.9416303088791117       -0.1162051185537833        0.5593901217632046
O       -1.0096563018215781       -0.7727297566893411       -0.1188566116894387       -0.9963138680841535
N        0.7917489291909182        0.7628024602029306       -0.0662480203807183        0.9989733053171830
O        0.7724024189506856        0.8623864855972359       -0.0757604686601752       -0.8354521971080898
N        0.6450319567392058        1.6353238877018390        0.0591579630536331        0.2899344186932475
O        0.6228068352201559        1.2487678428122078        0.0489596462657448       -0.8678253524624289
N        0.4768193190763965       -0.5026494364982689       -0.1190325932835681        0.9219570073558310
O        0.6024772110530252       -0.3295555088989001       -0.2776043557926225       -0.9704818863270434
O        0.7611929927231236       -0.3967592238055190        0.3750160340367845       -0.3320651923316272
N        0.6227205383711627        0.2318960628619369       -0.0180807752058610        0.9769593393400061
O        1.4713632180203218       -0.3699760545402549       -0.6437273330428427       -0.1970026432733326
O        1.4706950866206159       -0.7289143256482924        0.4028971174041887       -0.1946060569702309
N        2.7644164127758746       -0.0944595417044204        0.0101579694411126        0.1283355164991325
N        1.5668205458842961       -1.8282639869804747       -0.6447318706912888        0.1235072004109040

        RMSE         5.838820816E+00 kcal/mol

Coordinates in bohr
s                   x[bohr]                   y[bohr]                   z[bohr]                      q[e]
+       -3.4969277335273761        2.9154957183274632        0.3691003349108118        0.0707249461841811
-       -3.0883096511866830       -0.0564179098005940        0.5444685416208755       -0.3496602100029151
+       -2.8177852102252543        0.4389438682925912       -0.2142034955986305        0.9824851761690530
+       -5.8328362843358503       -0.9143428944188741       -0.0807511125297192        0.1071394941056757
-       -2.9052868300789085        0.2703874768480723       -0.6056975705492511       -0.8194842575378962
+       -1.0413684158982794       -1.2249871609213747       -0.2577018133761160        0.3116552922920345
+       -1.6856033009159173       -3.7502297373137483       -0.3279240773456364        0.0918298459672651
+       -2.4973112444216254       -1.7794233952117817       -0.2195958484430085        0.5593901217632046
-       -1.9079738912853703       -1.4602476091345187       -0.2246064442929286       -0.9963138680841535
+        1.4961886362953383        1.4414877376089832       -0.1251906148733060        0.9989733053171830
-        1.4596290304579334        1.6296742720748576       -0.1431665369040621       -0.8354521971080898
+        1.2189337404052607        3.0903142741754288        0.1117923483113194        0.2899344186932475
-        1.1769343476292373        2.3598292171938438        0.0925203226415517       -0.8678253524624289
+        0.9010579243816786       -0.9498697720974343       -0.2249390013089547        0.9219570073558310
-        1.1385169257198715       -0.6227696549548013       -0.5245962036822091       -0.9704818863270434
-        1.4384462848643171       -0.7497662707416587        0.7086775969848939       -0.3320651923316272
+        1.1767712702191502        0.4382200483810130       -0.0341677132750457        0.9769593393400061
-        2.7804735131307043       -0.6991534160585300       -1.2164683589223522       -0.1970026432733326
-        2.7792109277694412       -1.3774484443980533        0.7613652086303452       -0.1946060569702309
+        5.2239899168669819       -0.1785026637576165        0.0191957802344727        0.1283355164991325
+        2.9608617194616502       -3.4549182204306934       -1.2183666599606267        0.1235072004109040
