25
s                      x[A]                      y[A]                      z[A]                      q[e]
N 2.2157398006644637 0.7541706862928990 -0.4079949965106677 0.1158659338886357
O 1.4344406977017066 -0.7413054833663348 -0.6135732176318035 -0.2341991647481463
N 2.8077653705701975 -1.5700645331103646 -0.5326094668050549 0.0569852111266852
N 1.7735294856882611 -1.0421811705295903 -0.2155286315707138 0.3189271149812888
O 1.6801298161003861 -0.7983254734159938 0.1277207292585082 -0.2877498234141676
N 0.9177389133102978 -1.1721281542718165 0.1002998662018553 0.5692545008206258
O 0.4818502559553438 -0.6101038880176114 -0.4272237586469948 -0.2058946535748549
O 0.8209536023243672 -0.8954295382453842 0.1816239061352007 -0.9992971180892700
N 0.4931325443545560 -0.4543938188397369 0.0681522956097105 0.6691943173322236
N 0.0316543055273182 -2.1179032832131623 0.2444928061042072 0.0628076875181509
N 0.0915128052500112 1.8947191914862636 0.2258546061883075 0.7576134719858190
O -0.0263095663459822 1.5527287934315641 0.1766946042198090 -0.9235083265987739
N -0.2246029082243097 1.1926416749588127 0.2971860206476319 0.9955526175656415
O 0.0332542309447484 1.7067426360682199 0.2928232721951449 -0.9936641819349231
O -0.4341075778259235 0.1634606308594899 0.4845290931922725 -0.9934394819660318
N -0.3430841875974966 0.5617872814253959 0.2826601893485137 0.8475065253219278
N -0.5373466635350926 -0.1059345727462008 0.4098588140479152 0.9207393412409772
O -0.7529448328793109 0.1483848061944362 0.1885175981133262 -0.6738758902636315
N -2.8180677771479967 -0.0804091951824292 -0.5363654596897343 0.1207489421105395
N -1.2748086651343611 -0.0600039271758029 0.5257963184347354 0.4308753055723465
O -1.4899222939967824 0.0707847435674541 0.1659993639783595 -0.7095764258838037
N -1.5920693838378162 -0.0996745655376375 -0.0921194983873982 0.9977500474782615
O -1.5843993073736224 -0.2604302582348876 0.0897060442520263 -0.9963537733476465
O -2.1616726552022105 0.0346530063356926 1.5170339134601249 -0.1586318904925156
N -2.1458273556349585 -0.1264967224588656 1.4497061249462069 0.3123697133706422
