21
s                      x[A]                      y[A]                      z[A]                      q[e]
N       -1.8466721339015220        1.5401134182504925        0.1940026652677320        0.0707249461841811
O       -1.6439252622002414       -0.0254438557349610        0.2898545103540443       -0.3496602100029151
N       -1.4637977954969190        0.2218071824802895       -0.1236740871478221        0.9824851761690530
N       -3.0838955848383760       -0.4850058094598702       -0.0451542898442365        0.1071394941056757
O       -1.5560973969985226        0.1497665893752328       -0.3077820504051353       -0.8194842575378962
N       -0.5458420836049019       -0.6447489366494985       -0.1351584482250823        0.3116552922920345
N       -0.8918094056887719       -1.9833275491647475       -0.1720658553434679        0.0918298459672651
N       -1.3124428514874245       -0.9391522352402086       -0.1164185983890017        0.5593901217632046
O       -1.0239714716888881       -0.7766891922648202       -0.1191049020709107       -0.9963138680841535
N        0.8137545998995969        0.7734890823424424       -0.0718537209491087        0.9989733053171830
O        0.7499824813792949        0.8495362286550876       -0.0691404067776433       -0.8354521971080898
N        0.6554934410922110        1.6360023537784216        0.0552191669460112        0.2899344186932475
O        0.5929011706560234        1.2366933983744410        0.0568969302813572       -0.8678253524624289
N        0.4899844217315575       -0.4832047526124726       -0.1107383021611659        0.9219570073558310
O        0.5875128063331926       -0.3499943369592538       -0.2799218349190379       -0.9704818863270434
O        0.7547960771231881       -0.4014382478977808        0.3694995218387481       -0.3320651923316272
N        0.6423818572517676        0.2442537095577534       -0.0179632247477481        0.9769593393400061
O        1.4683336166283365       -0.3771187856500238       -0.6438689660294578       -0.1970026432733326
O        1.4670678485952964       -0.7329335824492589        0.3975754495527041       -0.1946060569702309
N        2.7655953920261580       -0.0929684056051919        0.0112978319283977        0.1283355164991325
N        1.5690737210070995       -1.8120816563488562       -0.6388304077743437        0.1235072004109040

        RMSE         5.831326210E+00 kcal/mol

Coordinates in bohr
s                   x[bohr]                   y[bohr]                   z[bohr]                      q[e]
+       -3.4897045765886627        2.9103925626361149        0.3666119049648832        0.0707249461841811
-       -3.1065685162799066       -0.0480819189147358        0.5477456407978241       -0.3496602100029151
+       -2.7661769365381033        0.4191548275471949       -0.2337101535253876        0.9824851761690530
+       -5.8277180548531273       -0.9165281491351381       -0.0853292411951489        0.1071394941056757
-       -2.9405979048650299        0.2830178366630922       -0.5816237815975623       -0.8194842575378962
+       -1.0314920457625192       -1.2183989099477115       -0.2554124506872772        0.3116552922920345
+       -1.6852755328590914       -3.7479458849968683       -0.3251573421417987        0.0918298459672651
+       -2.4801575446261546       -1.7747405147155382       -0.2199992668648791        0.5593901217632046
-       -1.9350256417739926       -1.4677298579835689       -0.2250756451134961       -0.9963138680841535
+        1.5377733271417504        1.4616825266589146       -0.1357838536888872        0.9989733053171830
-        1.4172614886981427        1.6053908058124342       -0.1306564330124940       -0.8354521971080898
+        1.2387030806982029        3.0915963892455838        0.1043491024038947        0.2899344186932475
-        1.1204208320032176        2.3370118240894069        0.1075196156110334       -0.8678253524624289
+        0.9259363628134707       -0.9131246449571762       -0.2092650626827982        0.9219570073558310
-        1.1102382991688793       -0.6613934423141923       -0.5289756045325994       -0.9704818863270434
-        1.4263578663327703       -0.7586083448104524        0.6982528997628575       -0.3320651923316272
+        1.2139257781687864        0.4615726161912749       -0.0339455751032901        0.9769593393400061
-        2.7747483962305464       -0.7126512216437807       -1.2167360064773851       -0.1970026432733326
-        2.7723564413097410       -1.3850437389797636        0.7513087138603857       -0.1946060569702309
+        5.2262178647576150       -0.1756848249142912        0.0213498081561248        0.1283355164991325
+        2.9651196033564435       -3.4243380474653278       -1.2072145113080550        0.1235072004109040
