25
s                      x[A]                      y[A]                      z[A]                      q[e]
N        1.8707070494506119        1.2423215136854178        0.5533866362445773        0.1158659338886357
O        1.8370591541504719       -0.1784290152623728       -0.3668503486650905       -0.2341991647481463
N        3.2893039902261512       -0.6334206963543955        0.1012649069612434        0.0569852111266852
N        2.0866759184146750       -0.5357886420804200        0.0605623256896632        0.3189271149812888
O        1.7978349625359271       -0.4391860456510631        0.3733143465537906       -0.2877498234141676
N        1.3274048722262664       -0.9006302509262075       -0.1098368133519854        0.5692545008206258
O        0.7939393719244782       -0.5021691672227604       -0.6849506045013570       -0.2058946535748549
O        1.1013530694285800       -0.7055404978264765       -0.0476667242216746       -0.9992971180892700
N        0.6722600231156908       -0.3881460620560271       -0.1923695384802537        0.6691943173322236
N        0.8323993209196745       -2.0749666475283042       -0.5873869542811538        0.0628076875181509
N       -0.5863189661085528        1.6194698272243688       -0.0821433197122814        0.7576134719858190
O       -0.5715082914493416        1.2722567036416730       -0.1594052506298038       -0.9235083265987739
N       -0.6310595503865356        0.8491303503900350       -0.0845806551554432        0.9955526175656415
O       -0.5941009108113608        1.4263064889546180       -0.0322826867192530       -0.9936641819349231
O       -0.4705918877960630       -0.2068703846613161        0.0382165628397137       -0.9934394819660318
N       -0.4980628618720798        0.2141245167111926       -0.1322419057596056        0.8475065253219278
N       -0.4371836717681528       -0.4803221260521625       -0.0575998445657271        0.9207393412409772
O       -0.6991142755750922       -0.3138736160412457       -0.3119896389739084       -0.6738758902636315
N       -2.8246026677858844       -0.0994612409462261        0.2764636618825391        0.1207489421105395
N       -1.1416686722493645       -0.7289270140297357       -0.0183860558364363        0.4308753055723465
O       -1.3621513329753401       -0.4636605269458546        0.2990092800398330       -0.7095764258838037
N       -1.5401576529440659       -0.2664287609218467        0.1120051934000377        0.9977500474782615
O       -1.5126083418330387       -0.4668147095704870       -0.0175954809098729       -0.9963537733476465
O       -1.6895923850670180       -1.9154947169312204        0.5608824666851798       -0.1586318904925156
N       -1.7168828944604617       -1.8687944872603455        0.3915996990714842        0.3123697133706422

        RMSE         5.646388584E-01 kcal/mol

Coordinates in bohr
s                   x[bohr]                   y[bohr]                   z[bohr]                      q[e]
+        3.5351239844249505        2.3476474206296487        1.0457491839906057        0.1158659338886357
-        3.4715386776096064       -0.3371819716810194       -0.6932466880057347       -0.2341991647481463
+        6.2158836849030381       -1.1969916383065913        0.1913629402767179        0.0569852111266852
+        3.9432459983919190       -1.0124937946629431        0.1144462090742423        0.3189271149812888
-        3.3974156979656374       -0.8299413444033283        0.7054618736909156       -0.2877498234141676
+        2.5084316661059858       -1.7019445145528938       -0.2075614957282820        0.5692545008206258
-        1.5003279731552657       -0.9489621947002511       -1.2943690519743467       -0.2058946535748549
-        2.0812556686523571       -1.3332783113112148       -0.0900770540766920       -0.9992971180892700
+        1.2703873287826044       -0.7334897539608498       -0.3635257426084005        0.6691943173322236
+        1.5730067435552637       -3.9211186832878808       -1.1100004732581994        0.0628076875181509
+       -1.1079822681067553        3.0603544418965649       -0.1552283772921333        0.7576134719858190
-       -1.0799941492675875        2.4042167311605271       -0.3012322666502931       -0.9235083265987739
+       -1.1925297190851070        1.6046238070512089       -0.1598342737555803        0.9955526175656415
-       -1.1226880123185197        2.6953286350875687       -0.0610054364933429       -0.9936641819349231
-       -0.8892897847967391       -0.3909283704779993        0.0722188372234077       -0.9934394819660318
+       -0.9412024021999628        0.4046366933301719       -0.2499009841942587        0.8475065253219278
+       -0.8261574061638584       -0.9076772702362196       -0.1088479310981646        0.9207393412409772
-       -1.3211345112347754       -0.5931351723250613       -0.5895749716411506       -0.6738758902636315
+       -5.3377254553528646       -0.1879545054865394        0.5224406045991736        0.1207489421105395
+       -2.1574411165663747       -1.3774724219639565       -0.0347446100582401        0.4308753055723465
-       -2.5740929607507055       -0.8761914111131247        0.5650456482456083       -0.7095764258838037
+       -2.9104761540922119       -0.5034773900873714        0.2116591401550080        0.9977500474782615
-       -2.8584155011473382       -0.8821519524233578       -0.0332506399653814       -0.9963537733476465
-       -3.1928668714357467       -3.6197604097613745        1.0599142506062142       -0.1586318904925156
+       -3.2444384600135896       -3.5315097656874412        0.7400161820568074        0.3123697133706422
