25
s                      x[A]                      y[A]                      z[A]                      q[e]
N       -1.7159860398167561        0.8923233583450050       -1.2627131323553824        0.1158659338886357
O       -1.8520479450169145        0.0944913884975541        0.2382020288413189       -0.2341991647481463
N       -3.3304570836024960       -0.4136333862075436       -0.0734350408540670        0.0569852111266852
N       -2.1258803586283674       -0.3909498411260157        0.0055457938265401        0.3189271149812888
O       -1.8149739913354863       -0.4975098285443232       -0.2730444023067976       -0.2877498234141676
N       -1.4199090451683363       -0.6544590084085388        0.3749179816011323        0.5692545008206258
O       -0.7815017438679828       -0.3272183116693635        0.8785730574726593       -0.2058946535748549
O       -1.1960556951780699       -0.4710959376874833        0.2811353718926500       -0.9992971180892700
N       -0.6948606979993821       -0.2346020230428418        0.3741929548651844        0.6691943173322236
N       -1.0569793554638793       -1.5035173361028633        1.4195547760460216        0.0628076875181509
N        0.8057744779705217        1.5993132421338618        0.1023874615329917        0.7576134719858190
O        0.7503985217515184        1.2494613963553720        0.1832247095311193       -0.9235083265987739
N        0.7492921791482466        0.8277182044823186        0.1014242426301171        0.9955526175656415
O        0.7779832083509064        1.4014889108634705        0.0529715426985787       -0.9936641819349231
O        0.4293557544315539       -0.2024267123381430        0.0025930673604484       -0.9934394819660318
N        0.5388108789475071        0.2061908616061979        0.1669212138209786        0.8475065253219278
N        0.3764557032115496       -0.4786134389087126        0.1021905279042301        0.9207393412409772
O        0.6841157362419976       -0.3436909241484732        0.3253945723775488       -0.6738758902636315
N        2.7386543389122200       -0.4018021761812600       -0.4873138960155748        0.1207489421105395
N        1.0275796390630827       -0.8152442618507447       -0.0162410598612346        0.4308753055723465
O        1.2480143737007277       -0.5702801852134922       -0.3535942966063270       -0.7095764258838037
N        1.4693595072156471       -0.4039128452549404       -0.1875709714840557        0.9977500474782615
O        1.4310453953414937       -0.5992933235497518       -0.0532093927476845       -0.9963537733476465
O        1.3494905911097206       -2.0470494611726058       -0.6550198504836470       -0.1586318904925156
N        1.3937602261945046       -2.0139804557380856       -0.4889700649669576        0.3123697133706422

        RMSE         8.525508836E-01 kcal/mol

Coordinates in bohr
s                   x[bohr]                   y[bohr]                   z[bohr]                      q[e]
+       -3.2427436503626410        1.6862467626208235       -2.3861819951706544        0.1158659338886357
-       -3.4998633872989466        0.1785628454746133        0.4501365970384994       -0.2341991647481463
+       -6.2936517605997233       -0.7816538162779828       -0.1387721152259934        0.0569852111266852
+       -4.0173316532976830       -0.7387881285194191        0.0104800314804156        0.3189271149812888
-       -3.4298037684531382       -0.9401573206722522       -0.5159791404491731       -0.2877498234141676
+       -2.6832392184284846       -1.2367482862308401        0.7084923047355771        0.5692545008206258
-       -1.4768242624781791       -0.6183529922897983        1.6602624598294464       -0.2058946535748549
-       -2.2602176946806232       -0.8902423010450903        0.5312688570558430       -0.9992971180892700
+       -1.3130964145632944       -0.4433335720293176        0.7071222027710009        0.6691943173322236
+       -1.9974015020896692       -2.8412359901123390        2.6825697468126033        0.0628076875181509
+        1.5226930822480380        3.0222640164510199        0.1934842609782028        0.7576134719858190
-        1.4180476910587787        2.3611398434437647        0.3462445204303781       -0.9235083265987739
+        1.4159570065376690        1.5641607155272823        0.1916640410529059        0.9955526175656415
-        1.4701751939882086        2.6484302093981378        0.1001017081433090       -0.9936641819349231
-        0.8113647862649630       -0.3825310467959253        0.0049001871361113       -0.9934394819660318
+        1.0182049946279994        0.3896442580078916        0.3154353786506356        0.8475065253219278
+        0.7113981774364637       -0.9044483195010085        0.1931121103549508        0.9207393412409772
-        1.2927913796133197       -0.6494817184461146        0.6149066245040321       -0.6738758902636315
+        5.1753066528408596       -0.7592960695955362       -0.9208898005992711        0.1207489421105395
+        1.9418440899260327       -1.5405883802489349       -0.0306911551248995        0.4308753055723465
-        2.3584053669291540       -1.0776733648288652       -0.6681963801098604       -0.7095764258838037
+        2.7766870484752486       -0.7632846560862658       -0.3544577651909253        0.9977500474782615
-        2.7042838702929468       -1.1325002503244173       -0.1005511795950457       -0.9963537733476465
-        2.5501676260795665       -3.8683628468822433       -1.2378081241524281       -0.1586318904925156
+        2.6338251120637675       -3.8058714833697236       -0.9240195063348713        0.3123697133706422
