21
s                      x[A]                      y[A]                      z[A]                      q[e]
N       -1.9699550331465587        1.4210140850021566       -0.2076506059580760        0.0707249461841811
O       -1.6274396126140425       -0.0687262728981635        0.2739542953745791       -0.3496602100029151
N       -1.4968219880179745        0.1421117784383029       -0.2193261693660391        0.9824851761690530
N       -3.0403079760138967       -0.6778328606707522        0.0663588657140380        0.1071394941056757
O       -1.5257859540846914       -0.0361779005472073       -0.3569582507631431       -0.8194842575378962
N       -0.4958339564530753       -0.6365227036122804       -0.0800178310981094        0.3116552922920345
N       -0.7395378767850760       -1.9999302707418141        0.2494904953166941        0.0918298459672651
N       -1.2569772692541124       -0.9897760635132281        0.0341654044382978        0.5593901217632046
O       -0.9277095635848318       -0.8409140627312807        0.0023028185176092       -0.9963138680841535
N        0.6935728347425929        0.9355433837657250       -0.0565691057767481        0.9989733053171830
O        0.7017348511561134        0.9446459692129150       -0.0733761587431256       -0.8354521971080898
N        0.4988267521123936        1.7486738365140453        0.0623094167831791        0.2899344186932475
O        0.5300076231661840        1.3035078884595617        0.0517227142164238       -0.8678253524624289
N        0.5015629342273940       -0.3638186949872780       -0.0723812929096096        0.9219570073558310
O        0.6621155271137561       -0.2649314375729447       -0.2390535190468855       -0.9704818863270434
O        0.8138644987296063       -0.2719549646207006        0.4104881932299124       -0.3320651923316272
N        0.5782673773082456        0.3875276751159757        0.0077933888680622        0.9769593393400061
O        1.5022479074733279       -0.5407419355889415       -0.5578332261639527       -0.1970026432733326
O        1.5502633919130062       -0.5265483286563513        0.4417425754646232       -0.1946060569702309
N        2.7523550321088237        0.0220838994322997       -0.0901604531022048        0.1283355164991325
N        1.7169989182330125       -1.8842673571714723       -0.0815459157351151        0.1235072004109040

        RMSE         7.443912222E+00 kcal/mol

Coordinates in bohr
s                   x[bohr]                   y[bohr]                   z[bohr]                      q[e]
+       -3.7226754921141940        2.6853274410721264       -0.3924027750461251        0.0707249461841811
-       -3.0754151535617233       -0.1298738334010038        0.5176985891507327       -0.3496602100029151
+       -2.8285836159172906        0.2685523404501355       -0.4144663922475924        0.9824851761690530
+       -5.7453494117112722       -1.2809184655033365        0.1254000821955654        0.1071394941056757
-       -2.8833175792904395       -0.0683663238282728       -0.6745533321648383       -0.8194842575378962
+       -0.9369903813984956       -1.2028535824631761       -0.1512117859285692        0.3116552922920345
+       -1.3975240465263703       -3.7793204817147537        0.4714687070533707        0.0918298459672651
+       -2.3753427848161350       -1.8704056855737539        0.0645632573538842        0.5593901217632046
-       -1.7531169991433369       -1.5890972736081841        0.0043516963149142       -0.9963138680841535
+        1.3106627057209226        1.7679207738013094       -0.1069001170801082        0.9989733053171830
-        1.3260866813739680        1.7851221673300768       -0.1386608441626252       -0.8354521971080898
+        0.9426459455440661        3.3045146337651623        0.1177477327572139        0.2899344186932475
-        1.0015692521889454        2.4632729115624024        0.0977417643343650       -0.8678253524624289
+        0.9478165803707926       -0.6875176928474321       -0.1367808202057048        0.9219570073558310
-        1.2512170096581459       -0.5006478590366933       -0.4517456803255301       -0.9704818863270434
-        1.5379810058319765       -0.5139204015916973        0.7757102629385467       -0.3320651923316272
+        1.0927669703993710        0.7323211720045928        0.0147273705498293        0.9769593393400061
-        2.8388371176667020       -1.0218541628130569       -1.0541520211304467       -0.1970026432733326
-        2.9295732330388757       -0.9950321329780617        0.8347724855825247       -0.1946060569702309
+        5.2011972107113635        0.0417325217092001       -0.1703785637103516        0.1283355164991325
+        3.2446577131677530       -3.5607492521943080       -0.1540994473890295        0.1235072004109040
