21
s                      x[A]                      y[A]                      z[A]                      q[e]
N -2.1644515099471029 1.5279610486472848 -0.2552638006391485 0.0690680479201058
O -1.8690581975637786 -0.2820498877154580 0.3397758858884807 -0.3117950550350966
N -1.9730254434185135 -0.4151358063526228 -0.0040806508138543 0.5776243102962968
N -3.3013492346577156 -0.6704656441372445 -0.0279913541291626 0.0604184539076988
O -1.8271858202436675 -0.3789681142266746 -0.3243856639016163 -0.3968494342195521
O -0.9091054645156034 -0.2145002039164513 0.1403592379892485 -0.9828651838991298
N -0.7546390666395071 -0.0602410978314625 0.1321147319399551 0.7759263489545838
N -0.9642795962981371 -1.4017962867547684 0.1437021197194761 0.9970342621901004
O -0.9593354687087878 -1.4354068377697988 -0.1349494238463060 -0.3970377457969525
O -1.0239072849468247 -1.3857883918927443 0.4111049155778043 -0.3893757401670396
N 1.8522782754665530 -1.1866674481847941 -0.1553860638895421 0.1691966627363242
O 1.5175123020912342 -0.8842512319661541 -0.0925270550093409 -0.6800109224217911
O 0.3509441285174977 0.4156206921972120 -0.3162425591335059 -0.9821368279659007
N 0.1982681486960133 0.4820229843142098 -0.1887761792454375 0.8921713087406896
O 0.5578725182783604 0.4914672492225278 0.3489199334852109 -0.3335771210350215
N 0.7916856150030345 -0.0983300107976392 -0.0679292282374413 0.9988617281482304
N 2.2042171746573294 1.7755083768875131 -0.0178609259280430 0.0655379221577991
N 1.0325995057639155 1.1184391095097825 0.0263452586577185 0.9908754307264420
O 0.8888402057653333 1.1026335841576376 -0.3216967123668178 -0.6595771554465193
O 0.9720184211571442 1.1495272109991681 0.3935203095096459 -0.5578053818499882
N -0.2648484015412964 2.2250916162527696 0.0419156018604771 0.0943160920587207
