25
s                      x[A]                      y[A]                      z[A]                      q[e]
N       -1.9057416711579560        1.2757008553593101        0.3656675282181682        0.1158659338886357
O       -1.7353015387056365       -0.4067939991518723        0.4660573084358889       -0.2341991647481463
N       -3.2857073871780562       -0.6615712887194267        0.0864433060217069        0.0569852111266852
N       -2.0944999776616031       -0.5269073635043061       -0.0043845721503370        0.3189271149812888
O       -1.8705257077719875       -0.3057879887602523       -0.2986158520368754       -0.2877498234141676
N       -1.2848410954482388       -0.9479667236288524       -0.2646856779657560        0.5692545008206258
O       -0.8614897854747505       -0.5162760577154750        0.3699288733282500       -0.2058946535748549
O       -1.0760459203503285       -0.7307351572669712       -0.3064293879308475       -0.9992971180892700
N       -0.6608691778388882       -0.4139823825123262       -0.0988686431537961        0.6691943173322236
N       -0.7940518000792749       -2.1212510697208509       -0.4121708524860538        0.0628076875181509
N        0.5566514781753983        1.6283815873754208       -0.0641160085168373        0.7576134719858190
O        0.5337621154434520        1.2749268749975224        0.0167747484166917       -0.9235083265987739
N        0.6159532997283026        0.8573248534110534       -0.0416463185300597        0.9955526175656415
O        0.5721059358089395        1.4281954799867222       -0.1092318138594301       -0.9936641819349231
O        0.4875321550762679       -0.2041560610099248       -0.1690601369478989       -0.9934394819660318
N        0.4888564467348017        0.2179301622496476       -0.0023449543033979        0.8475065253219278
N        0.4512860651122002       -0.4842763800675877       -0.0730601092762060        0.9207393412409772
O        0.6661652303216139       -0.3015166204964798        0.2152186464849266       -0.6738758902636315
N        2.8350221947180336       -0.0534854525605681        0.2265694317688733        0.1207489421105395
N        1.1413313679128780       -0.7150783310417490        0.1138118550723339        0.4308753055723465
O        1.4337066358089818       -0.4554743040518990       -0.1498707748319416       -0.7095764258838037
N        1.5559224573113883       -0.2467338463431709        0.0639661226163700        0.9977500474782615
O        1.4982279237001739       -0.4384223370762935        0.1967117425809707       -0.9963537733476465
O        1.8370695637060483       -1.9094348875763014       -0.2364127773609350       -0.1586318904925156
N        1.8135077792476098       -1.8609324039184525       -0.0699248127110517        0.3123697133706422

        RMSE         3.872738819E-01 kcal/mol

Coordinates in bohr
s                   x[bohr]                   y[bohr]                   z[bohr]                      q[e]
+       -3.6013298243608505        2.4107252346413865        0.6910114813054601        0.1158659338886357
-       -3.2792446532392101       -0.7687292478767627        0.8807206717118563       -0.2341991647481463
+       -6.2090870901601525       -1.2501885481459045        0.1633541737601655        0.0569852111266852
+       -3.9580313275579688       -0.9957106105101918       -0.0082856405414466        0.3189271149812888
-       -3.5347812983172195       -0.5778555512114535       -0.5643021770699327       -0.2877498234141676
+       -2.4279977851303918       -1.7913974837061031       -0.5001834406864065        0.5692545008206258
-       -1.6279797544266958       -0.9756203542133067        0.6990642564895735       -0.2058946535748549
-       -2.0334320878783290       -1.3808893174779302       -0.5790676199809742       -0.9992971180892700
+       -1.2488617508719826       -0.7823133237128188       -0.1868346579562958        0.6691943173322236
+       -1.5005404315766222       -4.0085835651068571       -0.7788900280951204        0.0628076875181509
+        1.0519188410827682        3.0771952278778221       -0.1211616963543441        0.7576134719858190
-        1.0086642143331286        2.4092626237311250        0.0316996803310046       -0.9235083265987739
+        1.1639830425585296        1.6201091734951703       -0.0787001361553923        0.9955526175656415
-        1.0811235334276523        2.6988983107916917       -0.2064182123813115       -0.9936641819349231
-        0.9213022504483808       -0.3857990421610172       -0.3194773575639228       -0.9934394819660318
+        0.9238047989932380        0.4118283211284224       -0.0044313214101358        0.8475065253219278
+        0.8528070672975873       -0.9151497273558651       -0.1380635972280503        0.9207393412409772
-        1.2588698396103852       -0.5697838350119512        0.4067042989482384       -0.6738758902636315
+        5.3574155076114582       -0.1010728570356408        0.4281541744437747        0.1207489421105395
+        2.1568037037494858       -1.3513022039183746        0.2150732359170094        0.4308753055723465
-        2.7093128859304847       -0.8607216918415959       -0.2832147186425276       -0.7095764258838037
+        2.9402673167678728       -0.4662593954693874        0.1208784530523932        0.9977500474782615
-        2.8312404493066561       -0.8284981443573500        0.3717313191395955       -0.9963537733476465
-        3.4715583488187334       -3.6083089919135678       -0.4467554017710038       -0.1586318904925156
+        3.4270330291652158       -3.5166525813957392       -0.1321387453978200        0.3123697133706422
