13

C -2.51847 -0.85562  0.12512
C -1.46664  0.16922 -0.18646
H -2.79044 -1.41133 -0.78047
H -3.40408 -0.37001  0.53574
H -2.12905 -1.58139  0.84953
C -0.17467 -0.35066 -0.82568
O -1.62072  1.37304  0.02312
C  1.05604 -0.06333 -0.00911
H -0.04672  0.12825 -1.80125
H -0.22028 -1.43138 -0.97421
F  1.35136  1.27976  0.10920
F  2.17516 -0.67413 -0.57587
F  0.93779 -0.57410  1.28471
