25
s                      x[A]                      y[A]                      z[A]                      q[e]
N 0.1242466994911309 -0.0035383642084784 0.1981154179973765 0.1158659338886357
O -0.1583608651500970 0.4015287705524372 0.2884943312101723 -0.2341991647481463
N -0.0769693883328927 -0.0003666732576054 -0.3984679504874904 0.0569852111266852
N -0.4805342334749126 0.0175549073374519 0.1675472431138647 0.3189271149812888
O -0.2336302240577008 -0.3901069258610333 0.2808251890124319 -0.2877498234141676
N -0.0359645069050305 0.0850771653321827 -0.5038701608296904 0.5692545008206258
O -0.1587115403497364 -0.4491710311884316 0.0691625211293845 -0.2058946535748549
O -0.0044605035141392 0.1519234471446013 -0.2030781097267121 -0.9992971180892700
N -0.1758595055072275 -0.0032439481600176 0.2741784872986680 0.6691943173322236
N 0.0244604211133330 0.0328644820108660 0.4518204148194888 0.0628076875181509
N 0.0138011240779518 0.0070108920187797 0.0859438891886573 0.7576134719858190
O -0.0165282775927246 -0.0440454250905474 -0.1932774283792141 -0.9235083265987739
N 0.0508925743968243 0.0011832350088719 -0.6255852796087649 0.9955526175656415
O 0.0142736464766375 0.0400173084909959 -0.0774832808653050 -0.9936641819349231
O -0.0787286699025269 0.0800930731322512 -0.1333262017854953 -0.9934394819660318
N -0.0595702272419172 -0.0270080934033297 0.2340748231182813 0.8475065253219278
N -0.1102464410942769 0.0248127507660827 -0.3828769454114475 0.9207393412409772
O 0.1282607698257587 -0.1965042884704118 -0.2198910989504081 -0.6738758902636315
N -0.0382991038984822 0.0161725760738927 0.2292663569949142 0.1207489421105395
N 0.2955073240323566 0.0597899919505067 -0.5094309730138169 0.4308753055723465
O 0.3808652173220176 -0.1742602563463976 -0.1767280339145023 -0.7095764258838037
N 0.4929262830786267 -0.0010349659393888 0.0088504398426012 0.9977500474782615
O 0.3484941529614696 0.0908514860746132 -0.1152551507081099 -0.9963537733476465
O -0.0208415320077328 -0.3405362547487005 -0.0619625638945838 -0.1586318904925156
N -0.0064532615365156 -0.1799302863154488 -0.0467762197318169 0.3123697133706422
