21
s                      x[A]                      y[A]                      z[A]                      q[e]
N       -1.8855980386292224        1.1329820230955319       -1.3452888048695868        0.0690680479201058
O       -1.8967432145595196        0.0951909579656543        0.2979075081206515       -0.3117950550350966
N       -1.9870106979646103       -0.2116927356573908        0.0878950276872388        0.5776243102962968
N       -3.3432629072101387       -0.2964643509896098        0.0866313523401412        0.0604184539076988
O       -1.8106948256232922       -0.3855958879271777       -0.1643991033047259       -0.3968494342195521
O       -0.8806307515983662        0.0349612911389923        0.4691375665407217       -0.9828651838991298
N       -0.7057943667721844        0.1662520796572798        0.4295884224162055        0.7759263489545838
N       -1.1122386116878860       -0.9488777259731616        0.9316119186680730        0.9970342621901004
O       -1.0851281505423334       -1.1484930195032195        0.7361276308839430       -0.3970377457969525
O       -1.1883158280061177       -0.7760116438544504        1.1303273952785431       -0.3893757401670396
N        1.5437324507765420       -1.4043779851724614       -0.4012060774686729        0.1691966627363242
O        1.2899233219525301       -1.0562945151665011       -0.2707265563488784       -0.6800109224217911
O        0.3539948594577700        0.4358381131028767       -0.2452646996878717       -0.9821368279659007
N        0.2444845961949191        0.5328696894592385       -0.0858529227443049        0.8921713087406896
O        0.7061351395756110        0.4458766194276715        0.3607824111792889       -0.3335771210350215
N        0.7347490089844263       -0.1464107750831835       -0.1017639982473061        0.9988617281482304
N        2.4494075586217692        1.4687495752254371       -0.2029351740730024        0.0655379221577991
N        1.2111599619176148        1.0068468294129442        0.0383290051490355        0.9908754307264420
O        1.0009358057127451        1.0443285297614757       -0.2722776331798530       -0.6595771554465193
O        1.2313929314461929        0.9922545928125287        0.4100221372036161       -0.5578053818499882
N        0.1510795017809088        2.2780818474992857        0.4274460451977281        0.0943160920587207

        RMSE         6.710310231E-01 kcal/mol

Coordinates in bohr
s                   x[bohr]                   y[bohr]                   z[bohr]                      q[e]
+       -3.5632638757096804        2.1410257287176910       -2.5422274008479966        0.0690680479201058
-       -3.5843252058379869        0.1798848401750549        0.5629636010656351       -0.3117950550350966
+       -3.7549060275079178       -0.4000412931414093        0.1660975301184143        0.5776243102962968
+       -6.3178512600290899       -0.5602364293319650        0.1637095298009070        0.0604184539076988
-       -3.4217173172116420       -0.7286706232850965       -0.3106692805167809       -0.3968494342195521
-       -1.6641509381769957        0.0660672652450910        0.8865415159257121       -0.9828651838991298
+       -1.3337580540903613        0.3141708983400576        0.8118044650341169        0.7759263489545838
+       -2.1018263622495428       -1.7931190286364973        1.7604913814949510        0.9970342621901004
-       -2.0505950155495825       -2.1703372638611809        1.3910796157527638       -0.3970377457969525
-       -2.2455914654782116       -1.4664494770512306        2.1360092091785603       -0.3893757401670396
+        2.9172315429494722       -2.6538897685982268       -0.7581696062850084        0.1691966627363242
-        2.4376018013310454       -1.9961073414879471       -0.5115990463877064       -0.6800109224217911
-        0.6689533341951200        0.8236146688007498       -0.4634831106527396       -0.9821368279659007
+        0.4620089287015461        1.0069777736357228       -0.1622385110568255        0.8921713087406896
-        1.3344020213598422        0.8425846964632883        0.6817799480111706       -0.3335771210350215
+        1.3884743979321188       -0.2766762667232219       -0.1923060861189790        0.9988617281482304
+        4.6287094554214336        2.7755344440585961       -0.3834919002200847        0.0655379221577991
+        2.2887606221442249        1.9026647578760219        0.0724313223929400        0.9908754307264420
-        1.8914945419615552        1.9734949062512237       -0.5145301567977913       -0.6595771554465193
-        2.3269953932579712        1.8750894271433549        0.7748295446897274       -0.5578053818499882
+        0.2854988815365358        4.3049507831506357        0.8077559588337744        0.0943160920587207
