25
s                      x[A]                      y[A]                      z[A]                      q[e]
N       -1.9344297326438857        1.2972530539409199        0.0035775046448947        0.1158659338886357
O       -1.7772857746071664       -0.3368115784524300        0.4400472405960033       -0.2341991647481463
N       -3.2848203853418290       -0.6804342342896719        0.0061503621040462        0.0569852111266852
N       -2.0902928731143611       -0.5452095137486134       -0.0325407031522603        0.3189271149812888
O       -1.8388212267480781       -0.3774510468634129       -0.3395221141679947       -0.2877498234141676
N       -1.2784282486614764       -0.9727432258436655       -0.1148384038491720        0.5692545008206258
O       -0.8263678496983866       -0.5374877200068265        0.4970799165932967       -0.2058946535748549
O       -1.0757940028869426       -0.7519896572366436       -0.1671325297727854       -0.9992971180892700
N       -0.6544817674202736       -0.4296697055218913        0.0182131994641730        0.6691943173322236
N       -0.7587179591769023       -2.1670952857918118       -0.0208025513193058        0.0628076875181509
N        0.5329863434455598        1.6298857187254638       -0.0046351462077775        0.7576134719858190
O        0.5195091871273020        1.2757642502766600        0.0753729184647171       -0.9235083265987739
N        0.6038519229336754        0.8596723934916572        0.0099146759132168        0.9955526175656415
O        0.5485177257586080        1.4301591497388599       -0.0516905833603316       -0.9936641819349231
O        0.4826592471082133       -0.2017970264351743       -0.1161237137175508       -0.9934394819660318
N        0.4878257905376152        0.2194089651902159        0.0526691447917377        0.8475065253219278
N        0.4557437160021516       -0.4828523869324598       -0.0198658507200096        0.9207393412409772
O        0.6842467141504548       -0.2986294325446041        0.2567131738542402       -0.6738758902636315
N        2.8512061800036088       -0.0221392495818963        0.0228389802566034        0.1207489421105395
N        1.1638254381003863       -0.7068281711386232        0.0756482110201893        0.4308753055723465
O        1.4232656151056406       -0.4378313086218651       -0.2119344284477724       -0.7095764258838037
N        1.5646949699373407       -0.2314432561779910       -0.0079093539076436        0.9977500474782615
O        1.5238367055687174       -0.4264958412537734        0.1261447164550124       -0.9963537733476465
O        1.8341868638814269       -1.8835563792163672       -0.3707276646643490       -0.1586318904925156
N        1.8277258444335103       -1.8386122157511817       -0.2016891985473363        0.3123697133706422

        RMSE         3.504487779E-01 kcal/mol

Coordinates in bohr
s                   x[bohr]                   y[bohr]                   z[bohr]                      q[e]
+       -3.6555424036395525        2.4514529873621096        0.0067605039914042        0.1158659338886357
-       -3.3585833606797153       -0.6364816391582458        0.8315687669898940       -0.2341991647481463
+       -6.2074108996169048       -1.2858343491930857        0.0116224999490419        0.0569852111266852
+       -3.9500810521825134       -1.0302966619789136       -0.0614930168875941        0.3189271149812888
-       -3.4748685122322560       -0.7132791043391984       -0.6416038093139349       -0.2877498234141676
+       -2.4158792610188886       -1.8382182872388990       -0.2170131319596572        0.5692545008206258
-       -1.5616089148134491       -1.0157045866096623        0.9393449048267509       -0.2058946535748549
-       -2.0329560328663097       -1.4210545013541627       -0.3158347079254908       -0.9992971180892700
+       -1.2367912945299051       -0.8119580678424896        0.0344179588556222        0.6691943173322236
+       -1.4337691493106384       -4.0952165779172853       -0.0393111247042695        0.0628076875181509
+        1.0071982177213130        3.0800376241861183       -0.0087591568841539        0.7576134719858190
-        0.9817300833298223        2.4108450336729237        0.1424341731747786       -0.9235083265987739
+        1.1411147546757134        1.6245453813160469        0.0187360220986532        0.9955526175656415
-        1.0365482766427538        2.7026091088240776       -0.0976810458161743       -0.9936641819349231
-        0.9120937889541963       -0.3813411128942528       -0.2194420155972414       -0.9934394819660318
+        0.9218571410510495        0.4146228536796183        0.0995302589184678        0.8475065253219278
+        0.8612308066424987       -0.9124587703259414       -0.0375410171100473        0.9207393412409772
-        1.2930388919887890       -0.5643278405101846        0.4851175913815552       -0.6738758902636315
+        5.3879988074196348       -0.0418371183329407        0.0431594176697190        0.1207489421105395
+        2.1993113358507026       -1.3357116612102331        0.1429544007089985        0.4308753055723465
-        2.6895822163309346       -0.8273812624461278       -0.4004980263217282       -0.7095764258838037
+        2.9568449630630438       -0.4373643677605785       -0.0149465127147660        0.9977500474782615
-        2.8796340334447939       -0.8059603336163701        0.2383789662735070       -0.9963537733476465
-        3.4661108356482937       -3.5594056985779212       -0.7005737533461892       -0.1586318904925156
+        3.4539012784004743       -3.4744735386909129       -0.3811373477175525        0.3123697133706422
