24
s                      x[A]                      y[A]                      z[A]                      q[e]
N 1.2846270187720563 -0.5618568381012998 0.1527514325589796 0.6959175615854226
O 1.4051936866458168 -0.7445221201775886 -0.0849114170352936 -0.4294665048044459
N 1.1770860902996352 -0.7478703985460862 1.4261559249399354 0.7289443612696791
O 1.1591010882470503 -0.7534964008062690 1.2240096309040882 -0.8899528116456963
N 2.2794313412334173 -0.3783336257914911 0.2681007044717559 0.4821174903544280
O 2.0350963410364460 -0.3737789081174047 0.3387796716883493 -0.6035297564939646
N 1.0640116931219028 -2.0280516310439447 -0.1144527034399970 0.0604057803354635
N 0.9818648823714475 1.5339288125394135 -0.9193548818556795 0.6991174418445399
O 0.5528470533026471 1.5844377918834969 -0.8401711233425028 -0.4131324281244263
O 1.0634744568336971 1.3349288301265148 -0.8333489473644842 -0.9286014603942530
O -0.1049922238956964 0.3317746155511930 -0.0390748260995551 -0.1057946580878595
N 0.6575909186827970 0.1922640493993233 -0.1867641790339676 0.9961038253671308
O 0.6524703533231065 -0.0930564660885853 -0.3409726604263100 -0.3737552305035935
N -0.5428609673011506 0.3263935682788571 0.2464292432891460 0.9714181100989372
O -0.9622415082493929 0.2376916904796296 0.1561000150292410 -0.9973398242463560
N -1.1097558721254615 0.4857549895287044 0.2666971978416794 0.7637225416907655
O -0.8754277712939313 0.4997296276220901 0.5504782608172732 -0.9974375214017446
O -1.9782957333621241 -0.7906250680120729 0.2437434982291665 -0.4871145088925188
N -1.2187697924627763 -0.6136244254290192 0.2478997243517113 0.4662300369825688
N -2.1995463545708125 -0.8050492662403107 0.2315355037577391 0.6223673236702755
N -1.9720383017611378 -0.8884103990344693 -0.9919908182044906 0.9509229066582735
O -1.9948550455102723 -0.8198469191421560 -0.8893089972108186 -0.9922381659518612
O -1.3873760458491082 -1.3825991747416289 0.3696466019991632 -0.6086911331096487
N -1.3296409819688351 -1.6698779895660056 0.5053165870545371 0.3897866237988844
