25
s                      x[A]                      y[A]                      z[A]                      q[e]
N        1.8711894417720183        1.2814278400621371        0.4610140279135071        0.1158659338886357
O        1.8155013498957151       -0.1689636402273120       -0.4079885309777515       -0.2341991647481463
N        3.3024279691647878       -0.5867613772047028        0.0340239081612831        0.0569852111266852
N        2.1040534262440826       -0.4995541025670289        0.0384398099961283        0.3189271149812888
O        1.8174429417750653       -0.4207184263757329        0.3314918466445888       -0.2877498234141676
N        1.3433989565487938       -0.8639417479965196       -0.0662171076882251        0.5692545008206258
O        0.8255243228635810       -0.4640067877707219       -0.6147950657786292       -0.2058946535748549
O        1.1216580518731687       -0.6892278680388019        0.0354828805108649       -0.9992971180892700
N        0.6767330081866163       -0.3784557093031944       -0.1418082361433321        0.6691943173322236
N        0.8389927923345241       -2.0896850190465455       -0.4793935859663930        0.0628076875181509
N       -0.6172148138021968        1.6217460976760649       -0.0327425808739147        0.7576134719858190
O       -0.5780235367351647        1.2762678756170285       -0.1400746385550845       -0.9235083265987739
N       -0.6423480649535001        0.8399500623714999       -0.0388584609508273        0.9955526175656415
O       -0.6100680258385055        1.4264819791017493       -0.0151743427573025       -0.9936641819349231
O       -0.4626870124971527       -0.2043465809111350        0.0775313802352489       -0.9934394819660318
N       -0.4989997216282389        0.2053200755558454       -0.1013335779767846        0.8475065253219278
N       -0.4235763170879777       -0.4746781353275512       -0.0351509506959378        0.9207393412409772
O       -0.6951042619768727       -0.3138321010476578       -0.2602213776208590       -0.6738758902636315
N       -2.8320786235091848       -0.1450091848327751        0.1752379682248572        0.1207489421105395
N       -1.1237440146320843       -0.7392818810710673       -0.0459579908050056        0.4308753055723465
O       -1.3705185384751621       -0.4826162825588210        0.2603591773819535       -0.7095764258838037
N       -1.5315184187815396       -0.2906272125406437        0.0809225341715193        0.9977500474782615
O       -1.5153294977146334       -0.4822187431519614       -0.0633254630355551       -0.9963537733476465
O       -1.6809380341314863       -1.9440061960187383        0.4882023300644607       -0.1586318904925156
N       -1.7123815857372244       -1.8904269269200678        0.3328137571662682        0.3123697133706422

        RMSE         9.353115341E-01 kcal/mol

Coordinates in bohr
s                   x[bohr]                   y[bohr]                   z[bohr]                      q[e]
+        3.5360355737974323        2.4215476672544156        0.8711902527506988        0.1158659338886357
-        3.4308003317018865       -0.3192950051900088       -0.7709865858758174       -0.2341991647481463
+        6.2406844107733388       -1.1088183039133421        0.0642958681425544        0.0569852111266852
+        3.9760847289324985       -0.9440204387005540        0.0726407132073186        0.3189271149812888
-        3.4344694086012715       -0.7950426017837282        0.6264288029805394       -0.2877498234141676
+        2.5386561051030414       -1.6326132920627263       -0.1251321983506933        0.5692545008206258
-        1.5600148801161922       -0.8768457492400991       -1.1617942976044395       -0.2058946535748549
-        2.1196265244548589       -1.3024519086265243        0.0670529263078797       -0.9992971180892700
+        1.2788400455299151       -0.7151776411989198       -0.2679787286451477        0.6691943173322236
+        1.5854665987453644       -3.9489323744700959       -0.9059225837776061        0.0628076875181509
+       -1.1663669586616001        3.0646559696377427       -0.0618745104923525        0.7576134719858190
-       -1.0923061784979735        2.4117967476360604       -0.2647027039916054       -0.9235083265987739
+       -1.2138619199799110        1.5872755769433557       -0.0734318488538612        0.9955526175656415
-       -1.1528614867335052        2.6956602634033633       -0.0286753519451264       -0.9936641819349231
-       -0.8743517354259021       -0.3861590725957537        0.1465130747733545       -0.9934394819660318
+       -0.9429728105570666        0.3879987108588563       -0.1914927096888478        0.8475065253219278
+       -0.8004432325263605       -0.8970116735120799       -0.0664256698647937        0.9207393412409772
-       -1.3135566837747787       -0.5930567203570800       -0.4917471356927642       -0.6738758902636315
+       -5.3518529641959507       -0.2740276450098381        0.3311517667266615        0.1207489421105395
+       -2.1235684227771134       -1.3970402847376029       -0.0868480158977698        0.4308753055723465
-       -2.5899046875807934       -0.9120125977227412        0.4920075395013865       -0.7095764258838037
+       -2.8941503675913385       -0.5492058363070393        0.1529214269621740        0.9977500474782615
-       -2.8635577405082313       -0.9112613571196996       -0.1196677819050025       -0.9963537733476465
-       -3.1765125183739924       -3.6736392966685014        0.9225686976321971       -0.1586318904925156
+       -3.2359322193205369       -3.5723891520698086        0.6289268518288744        0.3123697133706422
