21
s                      x[A]                      y[A]                      z[A]                      q[e]
N 0.0260800152709119 -0.0441185116654326 0.3771532868382198 0.0707249461841811
O 0.1072763037965982 0.2960561082548595 0.3134120755193630 -0.3496602100029151
N 0.3692895320279835 -0.1865585327291361 0.3143250603024112 0.9824851761690530
N 0.0345040753233714 -0.0091319926985495 -0.1893519715824152 0.1071394941056757
O 0.2623380515324772 -0.3231585768189060 0.3205749177429900 -0.8194842575378962
N 0.0975253492732638 0.1296707862139027 0.2875749129467357 0.3116552922920345
N 0.0292510063392848 -0.0180621837610410 0.2448295900140594 0.0918298459672651
N 0.0860971616235829 0.0440217429922810 -0.5528959232403856 0.5593901217632046
O 0.0516942982016161 0.0533267735716447 -0.1942457764774821 -0.9963138680841535
N 0.2205042416631279 0.0869724855140369 -0.4256555087806066 0.9989733053171830
O 0.2041851896297156 0.0964025376712345 -0.3310356654713133 -0.8354521971080898
N 0.0310035691534768 0.0089065968766598 0.4289333035728441 0.2899344186932475
O 0.0383977724567501 -0.0057996620621929 0.0392121439432100 -0.8678253524624289
N -0.0039656036741881 0.0817312895226745 -0.3490430585008207 0.9219570073558310
O 0.1251086130280251 0.2378822445150004 -0.1796429434573820 -0.9704818863270434
O 0.2610095538060490 -0.4209919523377059 -0.2008754231192150 -0.3320651923316272
N 0.0867982151217309 0.0163253075363921 0.3973626431876841 0.9769593393400061
O 0.1983194219350681 -0.5135698926814473 -0.0940645548590600 -0.1970026432733326
O 0.2298460463454194 0.4908377323006953 -0.0739917022268203 -0.1946060569702309
N 0.0219911363260994 -0.0000978158221451 0.1838010200737399 0.1283355164991325
N 0.0378088452121197 0.0039367531921807 -0.1487806367303207 0.1235072004109040
