21
s                      x[A]                      y[A]                      z[A]                      q[e]
N -1.7011865058096554 0.4134194725929660 -1.9043525857061141 0.0707249461841811
O -1.7023214352331966 0.4003509192498429 -0.2766428649730564 -0.3496602100029151
N -1.4623067948636947 0.0255731485228837 -0.5950757864166526 0.9824851761690530
N -3.1779280235216123 0.0088450086218911 -0.0970507422044347 0.1071394941056757
O -1.5175303552047883 -0.1486957658208152 -0.5488577408674007 -0.8194842575378962
N -0.5473403871786813 -0.6000422503968441 -0.1762508539057589 0.3116552922920345
N -1.2355601877537714 -0.4189867770406636 1.6430031131218723 0.0918298459672651
N -1.3086480866867434 -0.9604885996804233 -0.1034278149469622 0.5593901217632046
O -1.0076391732633070 -0.7727510301098528 -0.1044412366380501 -0.9963138680841535
N 0.7231542767298331 0.8727344934305991 0.1691317139359558 0.9989733053171830
O 0.6982144220788878 0.9695014855250521 0.1861280952140394 -0.8354521971080898
N 0.5521611535617794 1.6599644433708418 0.5184189105570172 0.2899344186932475
O 0.5484924900872958 1.2901060927406134 0.4100757318346993 -0.8678253524624289
N 0.4911723265019219 -0.3760638012531196 -0.1716481386646310 0.9219570073558310
O 0.5969887772282986 -0.1673010339054043 -0.2977880046959506 -0.9704818863270434
O 0.7917151030182559 -0.3449007367042056 0.3235083691447642 -0.3320651923316272
N 0.5903825686277238 0.3348381279108121 0.0644510195182963 0.9769593393400061
O 1.4034265612616248 -0.3811874828045584 -0.7713031711759244 -0.1970026432733326
O 1.5314681164276007 -0.6371221249966196 0.1919005077156240 -0.1946060569702309
N 2.7189689525788507 0.0042257207856795 -0.2945535737902049 0.1283355164991325
N 1.6162982584788539 -1.8237483473700737 -0.6941710654277085 0.1235072004109040
