21
s                      x[A]                      y[A]                      z[A]                      q[e]
N 0.1364142354981905 1.1193759572999262 0.2254162407899250 0.0707249461841811
O 0.3698131428388394 0.0922100900421664 0.0906593001088042 -0.3496602100029151
N 0.3873486281990248 -0.4084566920165524 0.3108642287049282 0.9824851761690530
N -0.3292510255672208 -0.0873245351801237 -0.0810590922981083 0.1071394941056757
O 0.2145994264819870 -0.4694588704210527 0.3554943910808626 -0.8194842575378962
N -0.3311707046564057 -0.4002483423373901 0.3491986879276830 0.3116552922920345
N -0.1829540495551460 1.0925867572094978 -0.2803253112954373 0.0918298459672651
N -0.4415205447204595 -0.4683662129217164 -0.4862634880864120 0.5593901217632046
O -0.3516536470830099 -0.4169747422952227 -0.1469470495397173 -0.9963138680841535
N 0.3398004428732551 -0.0644103603429854 -0.3254971301844848 0.9989733053171830
O 0.2389797396943412 -0.0636872540032130 -0.3359559548459342 -0.8354521971080898
N 0.1191029762213176 -0.2698529738062421 0.4316060008750586 0.2899344186932475
O -0.1309236119714035 -0.2093790020453745 -0.4674927938454559 -0.8678253524624289
N -0.2297432700505211 -0.1902149092170754 0.3626241091634553 0.9219570073558310
O 0.0000610545635304 -0.3032553536180530 0.2911950506808432 -0.9704818863270434
O -0.0441171056753970 0.3544262467228865 0.4360135000178829 -0.3320651923316272
N 0.2722742067249101 0.0194184163308620 -0.1617797040931692 0.9769593393400061
O 0.5318491183009479 -0.5829940071550922 -0.3279981640225478 -0.1970026432733326
O 0.3443018541274456 0.3988777271984722 -0.2259568540933264 -0.1946060569702309
N 1.5511902506204474 -0.1488277592090577 0.4575331527805363 0.1283355164991325
N -0.2428663646569915 -0.3783947760645441 0.8927395818883861 0.1235072004109040
