21
s                      x[A]                      y[A]                      z[A]                      q[e]
N        1.8633869105799565        1.2222747844555670       -1.1868492471733312        0.0707249461841811
O        1.6338541355100080       -0.1030969220878410       -0.3741052596115109       -0.3496602100029151
N        1.5275352417310362        0.3679855009290071       -0.1176720884613235        0.9824851761690530
N        3.1243347814367226       -0.3408860427659445        0.0710189464085520        0.1071394941056757
O        1.6023511472038490        0.3700513802847155        0.0559646890881881       -0.8194842575378962
N        0.6711087860518304       -0.2227397471722762        0.1535974027666931        0.3116552922920345
N        0.9535971819515519       -1.4764552938381970        1.1198681256006995        0.0918298459672651
N        1.4345821046892939       -0.4983979582185525        0.3901277066180415        0.5593901217632046
O        1.0979582541848669       -0.4288015220159854        0.3023801062649461       -0.9963138680841535
N       -1.2153510780352901       -0.5335494529163393       -0.2289055974232720        0.9989733053171830
O       -1.2526435693908133       -0.6230461169129541       -0.2585039198178036       -0.8354521971080898
N       -1.6138953177160735       -1.3160442360827835       -0.2824262833879763        0.2899344186932475
O       -1.3772020271835033       -1.0191781431238789       -0.2043777034891963       -0.8678253524624289
N       -0.2483765485960435        0.3124070727886493        0.0364644916885062        0.9219570073558310
O       -0.4113394489862222        0.2667310911702910       -0.1689480893108508       -0.9704818863270434
O       -0.6411957381923091        0.3321598390172068        0.4623185641462167       -0.3320651923316272
N       -0.7923378988427847       -0.2056968291313564       -0.0449030724779370        0.9769593393400061
O       -0.8050006323272074        1.1195632287463200       -0.4145574370967779       -0.1970026432733326
O       -1.0425394569229280        0.9705790072762567        0.5503460539924264       -0.1946060569702309
N       -2.2053826127278811        1.4648388480479562       -0.1470408972412988        0.1283355164991325
N       -0.2170106588633108        2.1917399990451147        0.3837966053393399        0.1235072004109040

        RMSE         1.528970085E+00 kcal/mol

Coordinates in bohr
s                   x[bohr]                   y[bohr]                   z[bohr]                      q[e]
+        3.5212909267590939        2.3097645926740209       -2.2428200293633993        0.0707249461841811
-        3.0875368450605767       -0.1948249471236833       -0.7069564827590554       -0.3496602100029151
+        2.8866232538566781        0.6953918148952305       -0.2223680198025477        0.9824851761690530
+        5.9041370611575479       -0.6441812608187397        0.1342063584307302        0.1071394941056757
-        3.0280048250284355        0.6992957610857568        0.1057579350730737       -0.8194842575378962
+        1.2682118060264320       -0.4209171194093216        0.2902570248106885        0.3116552922920345
+        1.8020375078968096       -2.7900961418365551        2.1162440540151302        0.0918298459672651
+        2.7109672823456359       -0.9418356425204377        0.7372345194610598        0.5593901217632046
-        2.0748403975952097       -0.8103174387896876        0.5714155866275830       -0.9963138680841535
+       -2.2966806837666232       -1.0082623403997377       -0.4325688877142892        0.9989733053171830
-       -2.3671532789645657       -1.1773865244954618       -0.4885016108129590       -0.8354521971080898
+       -3.0498201456421263       -2.4869631751838259       -0.5337083262342150        0.2899344186932475
-       -2.6025346508021481       -1.9259675635567917       -0.3862178857446078       -0.8678253524624289
+       -0.4693636528329893        0.5903638072265159        0.0689079025953100        0.9219570073558310
-       -0.7773189031806916        0.5040487114563726       -0.3192656182168972       -0.9704818863270434
-       -1.2116843379942244        0.6276911256186821        0.8736554689512565       -0.3320651923316272
+       -1.4973016276335722       -0.3887106719333590       -0.0848545091748840        0.9769593393400061
-       -1.5212307259187954        2.1156678824638395       -0.7834000193846216       -0.1970026432733326
-       -1.9701140485678732        1.8341285068708657        1.0400033162721127       -0.1946060569702309
+       -4.1675691399023203        2.7681442407417727       -0.2778670250276423        0.1283355164991325
+       -0.4100907115568147        4.1417883364064689        0.7252704719717780        0.1235072004109040
