21
s                      x[A]                      y[A]                      z[A]                      q[e]
N 1.8633868582768627 1.2223266943687139 -1.1868550160970770 0.0707249461841811
O 1.6338287691869602 -0.1033518924305100 -0.3740844649608234 -0.3496602100029151
N 1.5275919131269617 0.3684047650469924 -0.1177074705090657 0.9824851761690530
N 3.1243480917337001 -0.3408115923439645 0.0710139721024654 0.1071394941056757
O 1.6023080901384934 0.3696726080799068 0.0559987249470391 -0.8194842575378962
N 0.6711310687949708 -0.2225120025096117 0.1535737299949133 0.3116552922920345
N 0.9536042552215190 -1.4763880927403208 1.1198643883017945 0.0918298459672651
N 1.4346232103160217 -0.4980386596772662 0.3901052417345473 0.5593901217632046
O 1.0979164284619491 -0.4292412955624068 0.3024182758016716 -0.9963138680841535
N -1.2153855088260426 -0.5332304657502341 -0.2289658453354083 0.9989733053171830
O -1.2526321747955875 -0.6233638297435041 -0.2584587249916294 -0.8354521971080898
N -1.6139312623731739 -1.3159070858327122 -0.2824548192992464 0.2899344186932475
O -1.3771711824306363 -1.0194766880049653 -0.2043307346615793 -0.8678253524624289
N -0.2483336060085694 0.3127932474231717 0.0364070182769339 0.9219570073558310
O -0.4113848530550711 0.2663571891626162 -0.1688970737265665 -0.9704818863270434
O -0.6412192733982607 0.3319703254212955 0.4623521468802002 -0.3320651923316272
N -0.7923405422056204 -0.2053395866765669 -0.0449609509573458 0.9769593393400061
O -0.8050286471870391 1.1194623595174129 -0.4145318553966559 -0.1970026432733326
O -1.0425611227012541 0.9704819741271459 0.5503664872694761 -0.1946060569702309
N -2.2053713238278192 1.4648868052927217 -0.1470555580265708 0.1283355164991325
N -0.2169760149050354 2.1917934318481320 0.3837814059456962 0.1235072004109040
