21
s                      x[A]                      y[A]                      z[A]                      q[e]
N -2.0384607853352739 1.6721234795428477 0.0530937652594474 0.0690680479201058
O -1.8673672739012561 -0.2143659818579580 0.3894748558720846 -0.3117950550350966
N -1.9957145817373889 -0.3084625905678441 0.0381038978120987 0.5776243102962968
N -3.3446122122234154 -0.4412501229055721 0.0573370483224704 0.0604184539076988
O -1.8728395061503398 -0.2158838474182674 -0.2826901696373141 -0.3968494342195521
O -0.9418733542086349 -0.1199720851146543 0.0797205461675932 -0.9828651838991298
N -0.7558870978674154 -0.0325273643769253 0.0727129615537299 0.7759263489545838
N -1.0514820762067529 -1.3852140112843567 -0.0216889385275947 0.9970342621901004
O -1.0925787643992946 -1.3469282956635640 -0.3013973275048997 -0.3970377457969525
O -1.1200660234218636 -1.3714981789758289 0.2502878167301495 -0.3893757401670396
N 1.8086447506501253 -1.2493687390477723 -0.2904924622326457 0.1691966627363242
O 1.4059964328136700 -0.9997969225301651 -0.1389890392516233 -0.6800109224217911
O 0.3729463745325117 0.4098854659318699 -0.3621395522540750 -0.9821368279659007
N 0.2466125808666150 0.4132578751636292 -0.2386971469166802 0.8921713087406896
O 0.5883374903718224 0.4323253311608884 0.3005300324283413 -0.3335771210350215
N 0.7901145266677935 -0.2251275238749929 -0.1260538358103946 0.9988617281482304
N 2.2802299005467228 1.6461320950469625 0.2834384720610392 0.0655379221577991
N 1.0845174845474514 1.0050619622984263 0.1780041280850105 0.9908754307264420
O 0.9509202129327251 1.1322012341326100 -0.1621199612304591 -0.6595771554465193
O 1.0611979656140118 1.0645154975033351 0.3541850539951652 -0.5578053818499882
N -0.0679156412101843 2.2196188541025328 0.0167138728252105 0.0943160920587207
