25
s                      x[A]                      y[A]                      z[A]                      q[e]
N -1.7991835208673777 1.0066449576819139 -1.2431172430322437 0.1158659338886357
O -1.8802812601141594 0.2244562805672190 0.2830375495032891 -0.2341991647481463
N -3.3734584367837663 -0.2593046865922076 0.0406696752232985 0.0569852111266852
N -2.1629681028911327 -0.2586383849355781 0.0561587383782861 0.3189271149812888
O -1.8637905611722982 -0.3613339552634215 -0.2363762439564284 -0.2877498234141676
N -1.4047937445201182 -0.4651595094484035 0.6212941259099282 0.5692545008206258
O -0.9459899721805488 -0.4598887282661187 -0.1255593461713123 -0.2058946535748549
O -1.1036012037297711 -0.5005195762076300 0.5976248432657256 -0.9992971180892700
N -0.6348195012486555 -0.4547957362820840 0.2911308686251931 0.6691943173322236
N -1.0214647259626699 -1.3860995582539088 1.4129863659653932 0.0628076875181509
N 1.5079554604055145 -1.2657870054857649 -0.2707113982062585 0.7576134719858190
O 1.2655712006223234 -0.9952100377919163 -0.2766650818267808 -0.9235083265987739
N 1.0958321716875228 -0.6232649588438111 -0.1447356288111349 0.9955526175656415
O 1.4113098192421525 -1.1038424679510233 -0.1883564314423868 -0.9936641819349231
O 0.3926812701274516 0.1217220750176395 0.2055247969374503 -0.9934394819660318
N 0.6085101733628718 -0.1920118547470160 -0.0413383059773782 0.8475065253219278
N 0.1799660932324401 0.3281107665217241 0.1715668959809545 0.9207393412409772
O 0.3974135046234730 0.3447016985224284 -0.1677267683239612 -0.6738758902636315
N 2.2879402423171271 1.4817340945509645 -0.2118215969505664 0.1207489421105395
N 0.5690961756850239 0.9501768928793670 0.0784236067206463 0.4308753055723465
O 0.9955810062295619 0.8714336342327615 0.2636701072355298 -0.7095764258838037
N 1.1797770562602101 0.8278505752918009 0.0021211891595169 0.9977500474782615
O 1.0012020351945172 0.9684117056095791 -0.0756481287179111 -0.9963537733476465
O 0.4844925880933733 2.2149537054622987 0.7256345769847348 -0.1586318904925156
N 0.4671597520830234 2.1977136048183437 0.5523479857356401 0.3123697133706422
