25
s                      x[A]                      y[A]                      z[A]                      q[e]
N       -1.7269487094577074        0.6162143382578283       -1.5360324348335077        0.1158659338886357
O       -1.8686947281241926        0.4131407242845977        0.1568530242104857       -0.2341991647481463
N       -3.3796243706933553       -0.0798016162453107        0.0492550703877514        0.0569852111266852
N       -2.1715676816660610       -0.1136989165016918        0.1069036142150622        0.3189271149812888
O       -1.8709820829499311       -0.3178189450858820       -0.1245492435215986       -0.2877498234141676
N       -1.4232128130564272       -0.1639601697736787        0.7541702878294098        0.5692545008206258
O       -1.0082184352701433       -0.2550828267593756       -0.0195554665726910       -0.2058946535748549
O       -1.1292039916175736       -0.2373617642798197        0.7077356374526210       -0.9992971180892700
N       -0.6789067848536280       -0.2768637714480289        0.3871445601304994        0.6691943173322236
N       -1.1121172675449293       -0.7334229914385139        1.8072427657903953        0.0628076875181509
N        1.3022747461718462       -1.4069438906322689       -0.2344205059311618        0.7576134719858190
O        1.1024386272833151       -1.1062569593243547       -0.2465925579462131       -0.9235083265987739
N        0.9906004909126382       -0.7081342067980806       -0.1240404807263057        0.9955526175656415
O        1.2360222166368722       -1.2299367244032573       -0.1595849393327087       -0.9936641819349231
O        0.4200119656912777        0.1476245304477358        0.2128703235775666       -0.9934394819660318
N        0.5736173499129782       -0.2064912832300445       -0.0207003507112356        0.8475065253219278
N        0.2343837982787615        0.3773763725734329        0.1836819733292384        0.9207393412409772
O        0.4348766563460214        0.3496556389664042       -0.1706107982677373       -0.6738758902636315
N        2.4666180880695565        1.1949563944776069       -0.3410002798383282        0.1207489421105395
N        0.7035681044826406        0.9307686139540405        0.0408321887933905        0.4308753055723465
O        1.1231878765051930        0.8054681575490963        0.2129679384781512       -0.7095764258838037
N        1.2864398697492470        0.7187504023765763       -0.0473440368545079        0.9977500474782615
O        1.1278782857899126        0.8799803651897840       -0.1312481459154228       -0.9963537733476465
O        0.8234193872399069        2.2325473174103485        0.6038325025077272       -0.1586318904925156
N        0.7973702717268881        2.2059069844045029        0.4347494098529814        0.3123697133706422

        RMSE         9.753626383E-01 kcal/mol

Coordinates in bohr
s                   x[bohr]                   y[bohr]                   z[bohr]                      q[e]
+       -3.2634600935879101        1.1644763338875255       -2.9026806216554784        0.1158659338886357
-       -3.5313212482415999        0.7807228201711737        0.2964092577076241       -0.2341991647481463
+       -6.3865644675332049       -0.1508031990725234        0.0930785933229980        0.0569852111266852
+       -4.1036681812442435       -0.2148598129494951        0.2020185526880678        0.3189271149812888
-       -3.5356437224139903       -0.6005907636942380       -0.2353639593887740       -0.2877498234141676
+       -2.6894824349190585       -0.3098398163558216        1.4251752959552855        0.5692545008206258
-       -1.9052567172982022       -0.4820366818828253       -0.0369544760779314       -0.2058946535748549
-       -2.1338862839309911       -0.4485487271443380        1.3374265240117678       -0.9992971180892700
+       -1.2829478880884777       -0.5231967020981253        0.7315971896074838        0.6691943173322236
+       -2.1015970550524261       -1.3859685879327928        3.4151938695587729        0.0628076875181509
+        2.4609426103648997       -2.6587386271810800       -0.4429905544011582        0.7576134719858190
-        2.0833070756911458       -2.0905226775047709       -0.4659923990944322       -0.9235083265987739
+        1.8719636275689624       -1.3381797109166893       -0.2344025370428481        0.9955526175656415
-        2.3357434744249930       -2.3242435607648599       -0.3015718290866222       -0.9936641819349231
-        0.7937075845717045        0.2789699319455309        0.4022666117991890       -0.9934394819660318
+        1.0839796921464395       -0.3902119725991269       -0.0391179935451615        0.8475065253219278
+        0.4429211869914132        0.7131379903825232        0.3471086237759097        0.9207393412409772
-        0.8217977788488223        0.6607533958684642       -0.3224076827717582       -0.6738758902636315
+        4.6612326425518793        2.2581403174272241       -0.6443971375989191        0.1207489421105395
+        1.3295510280796889        1.7588977665451220        0.0771616539224964        0.4308753055723465
-        2.1225174740293640        1.5221142205449092        0.4024510772270579       -0.7095764258838037
+        2.4310190306957176        1.3582414130543425       -0.0894672633286018        0.9977500474782615
-        2.1313810629937886        1.6629218859890551       -0.2480230502542756       -0.9963537733476465
-        1.5560371282757284        4.2189029920311256        1.1410780553894317       -0.1586318904925156
+        1.5068114341457080        4.1685600587590832        0.8215573178265519        0.3123697133706422
