21
s                      x[A]                      y[A]                      z[A]                      q[e]
N 2.0556602098961898 1.5417716178763798 -0.3208391284453853 0.0707249461841811
O 1.6844592314945395 -0.0014245426496838 -0.3237378199533693 -0.3496602100029151
N 1.5605692231532866 0.2984928776488666 0.1169354729102918 0.9824851761690530
N 3.1039041123645497 -0.5482188672815130 0.0223750280208260 0.1071394941056757
O 1.6154158867872175 0.2117470396116150 0.2757382815947618 -0.8194842575378962
N 0.6373217417472437 -0.3371967531704421 -0.0668514807025567 0.3116552922920345
N 0.8276081084104393 -1.8650690054264873 0.2622433422582475 0.0918298459672651
N 1.3974972649167847 -0.6891615533986597 0.0470958961658219 0.5593901217632046
O 1.0596537966768727 -0.5861047823964837 0.0148940212582359 -0.9963138680841535
N -1.3016235964432288 -0.4579069045186702 -0.1180745072173943 0.9989733053171830
O -1.3516044007547747 -0.5443965768515731 -0.1380350062646110 -0.8354521971080898
N -1.7751761929562115 -1.1984972077982192 -0.0792653650142099 0.2899344186932475
O -1.5017488364223011 -0.9254840877850482 -0.0512915131255643 -0.8678253524624289
N -0.2293815259750178 0.2926784726121778 -0.0452339702620736 0.9219570073558310
O -0.4284436256738362 0.2592392174907127 -0.2187542140546267 -0.9704818863270434
O -0.5408030070573160 0.3568901200365706 0.4395019568023661 -0.3320651923316272
N -0.8254419671454103 -0.1709045276149993 -0.0179942627136785 0.9769593393400061
O -0.7846446493721719 1.1184097051791850 -0.4875975080877549 -0.1970026432733326
O -0.8729363370022734 1.0570076835771391 0.5113920279516087 -0.1946060569702309
N -2.0899354175964611 1.6078333985549960 -0.0331498012217337 0.1283355164991325
N 0.0033614709674620 2.1894626555226711 0.1191645884316626 0.1235072004109040
