21
s                      x[A]                      y[A]                      z[A]                      q[e]
N        2.0555453451238539        1.5413021775231781       -0.3208806121093832        0.0707249461841811
O        1.6850274570447605        0.0009542120168833       -0.3235019027839491       -0.3496602100029151
N        1.5595238907997868        0.2947888449862487        0.1164720618504130        0.9824851761690530
N        3.1036643372674964       -0.5489582142926641        0.0223017625486288        0.1071394941056757
O        1.6162584212519766        0.2151938602472792        0.2760981990026873       -0.8194842575378962
N        0.6368957292285548       -0.3394041929594583       -0.0670951168451140        0.3116552922920345
N        0.8274987991792220       -1.8657344065207138        0.2621430900935317        0.0918298459672651
N        1.3967733679349998       -0.6925491740923869        0.0467410871170315        0.5593901217632046
O        1.0604500414027032       -0.5820637117646080        0.0153345638097717       -0.9963138680841535
N       -1.3014506562272423       -0.4606923211471981       -0.1183488345908481        0.9989733053171830
O       -1.3515486324674297       -0.5415785039613343       -0.1376959864323735       -0.8354521971080898
N       -1.7748630226937261       -1.1998012495052885       -0.0794265576197871        0.2899344186932475
O       -1.5018924264144040       -0.9228108908893121       -0.0510018278150138       -0.8678253524624289
N       -0.2300669319426022        0.2892671530182712       -0.0455697364489918        0.9219570073558310
O       -0.4277524171735118        0.2625323278941337       -0.2183381045086525       -0.9704818863270434
O       -0.5403999929821368        0.3586945651765854        0.4397020248788957       -0.3320651923316272
N       -0.8256456653715368       -0.1740488137926101       -0.0183254155701968        0.9769593393400061
O       -0.7843148301421127        1.1193583953974839       -0.4874811190723137       -0.1970026432733326
O       -0.8726098870292088        1.0579317040409462        0.5115226743815626       -0.1946060569702309
N       -2.0900785101453079        1.6073762323119505       -0.0332115082179802        0.1283355164991325
N        0.0029699048661561        2.1889389445807708        0.1190778916786190        0.1235072004109040

        RMSE         1.580269281E+00 kcal/mol

Coordinates in bohr
s                   x[bohr]                   y[bohr]                   z[bohr]                      q[e]
+        3.8844177407437743        2.9126389920905891       -0.6063764758560011        0.0707249461841811
-        3.1842404076912523        0.0018031993775303       -0.6113299973261471       -0.3496602100029151
+        2.9470730397199985        0.5570701818640520        0.2201002981646655        0.9824851761690530
+        5.8650755827861438       -1.0373806793335243        0.0421442233319007        0.1071394941056757
-        3.0542857641310839        0.4066574597474043        0.5217499798472327       -0.8194842575378962
+        1.2035584987157149       -0.6413809705254182       -0.1267913951928576        0.3116552922920345
+        1.5637460995939565       -3.5257270511677490        0.4953786459579920        0.0918298459672651
+        2.6395191247304886       -1.3087282674466252        0.0883278534573547        0.5593901217632046
-        2.0039601479815237       -1.0999410028025347        0.0289781258538257       -0.9963138680841535
+       -2.4593853060668547       -0.8705823150696681       -0.2236468846438127        0.9989733053171830
-       -2.5540567606005022       -1.0234350479220993       -0.2602077029319429       -0.8354521971080898
+       -3.3540050230933844       -2.2672957665470901       -0.1500944409892933        0.2899344186932475
-       -2.8381653558225479       -1.7438598493705464       -0.0963794864681333       -0.8678253524624289
+       -0.4347634918958634        0.5466356962954343       -0.0861143214978877        0.9219570073558310
-       -0.8083349179605209        0.4961141987988054       -0.4125992202729423       -0.9704818863270434
-       -1.0212079849355709        0.6778344908739291        0.8309164038303571       -0.3320651923316272
+       -1.5602441842236048       -0.3289045905288401       -0.0346300165628726        0.9769593393400061
-       -1.4821402251035691        2.1152808035331789       -0.9212058063783696       -0.1970026432733326
-       -1.6489937008519000        1.9992011800762948        0.9666377615428966       -0.1946060569702309
+       -3.9496759648795630        3.0375008596398643       -0.0627606547453746        0.1283355164991325
+        0.0056123068156995        4.1364951106063677        0.2250246028695237        0.1235072004109040
