25
s                      x[A]                      y[A]                      z[A]                      q[e]
N       -1.9393012408329164        1.2980435446610010       -0.7097436001631447        0.1158659338886357
O       -1.8656753698006225       -0.0120368835263962        0.3887486802361390       -0.2341991647481463
N       -3.3544418454658986       -0.4734744423155977        0.0452090346034146        0.0569852111266852
N       -2.1507617348672579       -0.3971757541157312        0.0086853315542189        0.3189271149812888
O       -1.8741114145419597       -0.3494854233738557       -0.3186317407095030       -0.2877498234141676
N       -1.3718272864672802       -0.7221960059846145        0.3808475789318957        0.5692545008206258
O       -0.8353467044202282       -0.6291640787084698       -0.3171396316778229       -0.2058946535748549
O       -1.0669633573036357       -0.7036724452776544        0.3771263595527319       -0.9992971180892700
N       -0.5780856184445785       -0.6027937564556969        0.1421124101156571        0.6691943173322236
N       -0.8794007704149478       -1.8897590625630523        0.7462683430768592        0.0628076875181509
N        1.6915078335721816       -1.1164955196925497       -0.1768115815368998        0.7576134719858190
O        1.4222576006729117       -0.8770846560593578       -0.2124168960004225       -0.9235083265987739
N        1.1892772791124055       -0.5356747320417240       -0.0927037710997353        0.9955526175656415
O        1.5693717542019865       -0.9686059754857009       -0.1090598688639143       -0.9936641819349231
O        0.3657489748909053        0.1098697534050039        0.1737697308539879       -0.9934394819660318
N        0.6448692037753740       -0.1743841799046209       -0.0421880450365718        0.8475065253219278
N        0.1336685771532884        0.2805739142084311        0.1247318165494709        0.9207393412409772
O        0.3838132578192561        0.3400775665941949       -0.1922666801903907       -0.6738758902636315
N        2.1039340577505659        1.6987360123787536       -0.1082103552839207        0.1207489421105395
N        0.4468163362691443        0.9556404855091510        0.0399626517786491        0.4308753055723465
O        0.8600532993438839        0.9367089949584886        0.2589883806957890       -0.7095764258838037
N        1.0708384750387501        0.9103696918275469        0.0191685804794869        0.9977500474782615
O        0.8831580620368092        1.0315651352161310       -0.0789656749199315       -0.9963537733476465
O        0.1486591217619033        2.2082052283669449        0.6542609404888712       -0.1586318904925156
N        0.1525457284330854        2.1854042252271078        0.4824599783354027        0.3123697133706422

        RMSE         9.348269231E-01 kcal/mol

Coordinates in bohr
s                   x[bohr]                   y[bohr]                   z[bohr]                      q[e]
+       -3.6647482199347459        2.4529467983277788       -1.3412210236047895        0.1158659338886357
-       -3.5256154879354313       -0.0227464132689238        0.7346285372794832       -0.2341991647481463
+       -6.3389763917058790       -0.8947370233803603        0.0854326937967996        0.0569852111266852
+       -4.0643506400136600       -0.7505533989509118        0.0164128979462707        0.3189271149812888
-       -3.5415573020786670       -0.6604317350162650       -0.6021267248188524       -0.2877498234141676
+       -2.5923778628531395       -1.3647526602104241        0.7196976197249657        0.5692545008206258
-       -1.5785764911580034       -1.1889477967350006       -0.5993070473996550       -0.2058946535748549
-       -2.0162685312028756       -1.3297482036059773        0.7126655342456000       -0.9992971180892700
+       -1.0924234959261658       -1.1391151098371937        0.2685535341473346        0.6691943173322236
+       -1.6618266106008683       -3.5711270713460941        1.4102427845144663        0.0628076875181509
+        3.1964865445179234       -2.1098707525196261       -0.3341254649137965        0.7576134719858190
-        2.6876773451225686       -1.6574497887935620       -0.4014097578606569       -0.9235083265987739
+        2.2474083447521140       -1.0122785358868673       -0.1751847381756322        0.9955526175656415
-        2.9656828044710748       -1.8304000171498938       -0.2060932834311435       -0.9936641819349231
-        0.6911653932107630        0.2076237434070450        0.3283772002085563       -0.9934394819660318
+        1.2186261818775121       -0.3295383406323001       -0.0797238508876012        0.8475065253219278
+        0.2525970023993445        0.5302078558016355        0.2357089724093483        0.9207393412409772
-        0.7253019405981294        0.6426534622751745       -0.3633313686108264       -0.6738758902636315
+        3.9758591551717433        3.2101458228481832       -0.2044879354250985        0.1207489421105395
+        0.8443605039291521        1.8058987920118457        0.0755184671086869        0.4308753055723465
-        1.6252651890563392        1.7701234597244009        0.4894171091908503       -0.7095764258838037
+        2.0235914424261465        1.7203493904715073        0.0362233673200274        0.9977500474782615
-        1.6689268627396638        1.9493755861293598       -0.1492234989106046       -0.9963537733476465
-        0.2809250261810850        4.1729031104175851        1.2363739921084291       -0.1586318904925156
+        0.2882696483469965        4.1298154590975891        0.9117172255482282        0.3123697133706422
