25
s                      x[A]                      y[A]                      z[A]                      q[e]
N -2.0403570614238782 1.4185923290908873 0.0036374549607352 0.1158659338886357
O -1.8429865265897050 -0.2151976885022081 0.4401054509824134 -0.2341991647481463
N -3.3457225501292371 -0.5770786332806248 0.0061902508600393 0.0569852111266852
N -2.1536012345454680 -0.4271454972165147 -0.0325074259440716 0.3189271149812888
O -1.9040533598268639 -0.2565146247364044 -0.3394948216194674 -0.2877498234141676
N -1.3738744464188843 -0.7681533384884328 0.1148935951746461 0.5692545008206258
O -0.7506586957716733 -0.6944936699408433 -0.4970665120070130 -0.2058946535748549
O -1.0746901650775713 -0.7514135280552177 0.1672009601894774 -0.9992971180892700
N -0.5583008366468428 -0.6299435341011620 -0.0181975637022872 0.6691943173322236
N -0.8152786564903884 -2.0332905087853290 -0.0208121695352388 0.0628076875181509
N 1.7415230733851543 -1.0822420484134574 0.0045351492016755 0.7576134719858190
O 1.4699831476661678 -0.8544996432306431 -0.0754457035555319 -0.9235083265987739
N 1.2181560846393698 -0.5126574305944664 -0.0099713401928479 0.9955526175656415
O 1.6039225936361841 -0.9366529135483953 0.0516378617137258 -0.9936641819349231
O 0.3465482183492272 0.1133479783655354 0.1161610027406938 -0.9934394819660318
N 0.6622178511674830 -0.1655679815879534 -0.0526911691071285 0.8475065253219278
N 0.1201313412307188 0.2820688020567753 0.0199016712010064 0.9207393412409772
O 0.4100780773049848 0.3277825482302388 -0.2567207610662237 -0.6738758902636315
N 2.0833706604356013 1.7278898376541145 -0.0228919154165106 0.1207489421105395
N 0.4326729942452012 0.9590935711148530 -0.0756255006341577 0.4308753055723465
O 0.8063731706832378 0.9657836245693185 0.2119670909513311 -0.7095764258838037
N 1.0538121195198284 0.9287097943974654 0.0079205224055481 0.9977500474782615
O 0.8831868718122264 1.0316856813650452 -0.1261597813527001 -0.9963537733476465
O 0.0302031809362987 2.2528883938903856 0.3707219674006617 -0.1586318904925156
N 0.0586117828524545 2.2174943488052663 0.2017068678066059 0.3123697133706422
