21
s                      x[A]                      y[A]                      z[A]                      q[e]
N 1.7198907941479142 0.3135075363655629 -1.7695039842524354 0.0707249461841811
O 1.6252074380503108 -0.1743493954296892 -0.2705548651678613 -0.3496602100029151
N 1.4766730054848234 0.3391519261446623 -0.3881639761502318 0.9824851761690530
N 3.1362665198376711 0.0199337816036519 0.1074352020469580 0.1071394941056757
O 1.5523519840930442 0.4615744171663144 -0.2655097108244545 -0.8194842575378962
N 0.6792844027577882 0.1225415533263009 0.2992326187064143 0.3116552922920345
N 1.0981787394783145 -0.2291947236453164 1.7991386469849924 0.0918298459672651
N 1.4579006022464134 0.0886323801898043 0.6269445002652343 0.5593901217632046
O 1.1265909156910985 0.0546016450570361 0.5050046886493540 -0.9963138680841535
N -1.0213119126679489 -0.7238728972170808 -0.2001805677193064 0.9989733053171830
O -1.0303786560113761 -0.8229871386556753 -0.2219960107282136 -0.8354521971080898
N -1.1940907052065957 -1.5866646342035571 -0.1950714923358635 0.2899344186932475
O -1.0526139673548722 -1.2315188049684145 -0.1327873839592079 -0.8678253524624289
N -0.3421858533727372 0.3733030030376093 0.0432621131907592 0.9219570073558310
O -0.4642345400836276 0.2663222023516519 -0.1678199651810248 -0.9704818863270434
O -0.7703683798755678 0.3236560312923641 0.4310250198215447 -0.3320651923316272
N -0.7203747969598571 -0.2777085204186601 -0.0214885259631033 0.9769593393400061
O -1.0504693939111411 0.9422245005294982 -0.5283664575147186 -0.1970026432733326
O -1.3201818319636656 0.8424977545610346 0.4344245355335791 -0.1946060569702309
N -2.5101102573569780 0.9329707946518578 -0.3781121327492293 0.1283355164991325
N -0.8249702254173248 2.2134165200440106 0.1555216340805106 0.1235072004109040
