21
s                      x[A]                      y[A]                      z[A]                      q[e]
N -0.4170799095647069 0.2421675545924751 -0.4881901332243408 0.0707249461841811
O 0.8804768847123832 -0.5476609784270040 0.5267722002018690 -0.3496602100029151
N 0.9283163198216342 -0.0147730768077050 0.3305110559684313 0.9824851761690530
N 1.5562234837606312 0.6167727653682770 0.7719381813483598 0.1071394941056757
O 1.0212991637510538 0.0734951086340722 0.4630017727794912 -0.8194842575378962
N -0.2406283935568918 0.1733919066732107 0.6660972782739518 0.3116552922920345
N -0.5927103101249975 -0.0390363819139309 0.6260932193247885 0.0918298459672651
N 0.2644463590583840 -0.1409298129710427 -0.1018196471265135 0.5593901217632046
O 0.0843358795581665 -0.0311205237003893 -0.3869435713420198 -0.9963138680841535
N 0.8534424588134557 0.5241637342971550 0.3842959072676800 0.9989733053171830
O 0.9488957898336020 0.5332292666242703 0.4187666189699766 -0.8354521971080898
N 1.3790695926407444 -0.4552746707306160 -0.1583543508745694 0.2899344186932475
O 1.3144167196898129 0.3931351754832629 0.5674905444333780 -0.8678253524624289
N -0.4404574339769655 0.4308356698535454 0.5272935056818859 0.9219570073558310
O -0.2673620202739069 0.6249406517634486 0.4702176683622568 -0.9704818863270434
O -0.2610978653729540 0.0334270776843888 0.1451132791069262 -0.3320651923316272
N 0.3120273295923884 0.4076145558928165 0.4620019560171336 0.9769593393400061
O 0.2885954575396101 0.7016318199770638 0.2710757885856747 -0.1970026432733326
O -0.5032024897719131 0.1743795771938523 -0.5870174001174340 -0.1946060569702309
N 0.0534498148573900 -0.0287508753870708 0.1895425627334902 0.1283355164991325
N -0.4711015442319501 1.9191093528189724 0.5473468999311611 0.1235072004109040
