21
s                      x[A]                      y[A]                      z[A]                      q[e]
N       -1.8679254635392248        1.5286459657064726        0.1438914146058146        0.0707249461841811
O       -1.6276532006259197       -0.0245290547738757        0.2896587958996482       -0.3496602100029151
N       -1.4826804137082616        0.2245631636747062       -0.1669435642016885        0.9824851761690530
N       -3.0821740188849769       -0.5028503509711764       -0.0003371415244173        0.1071394941056757
O       -1.5410110458138002        0.1270185660695951       -0.3261812172583972       -0.8194842575378962
N       -0.5314151110706590       -0.6467083591422167       -0.1657100103204567        0.3116552922920345
N       -0.8837361559442326       -1.9912534218458564       -0.1137846271375001        0.0918298459672651
N       -1.3171163940587316       -0.9489415613355687       -0.0868676693804896        0.5593901217632046
O       -1.0060981987621860       -0.7790051691611122       -0.1003888307648974       -0.9963138680841535
N        0.7866100312462261        0.7858684977935314       -0.0690423265405311        0.9989733053171830
O        0.7659879912646540        0.8850563907350329       -0.0799164060556939       -0.8354521971080898
N        0.6290872986588738        1.6541741889491255        0.0727045411286414        0.2899344186932475
O        0.6210327639159204        1.2588228565084245        0.0410683932720006       -0.8678253524624289
N        0.4931496484548955       -0.4847921265633578       -0.1204033503719402        0.9219570073558310
O        0.6205650360305043       -0.3109582073735185       -0.2767475379871870       -0.9704818863270434
O        0.7615972149647240       -0.3705827779014701        0.3806528323838005       -0.3320651923316272
N        0.6245990252268641        0.2527353207368621       -0.0213586542983459        0.9769593393400061
O        1.5075732817594258       -0.4379967605999616       -0.6465870529935460       -0.1970026432733326
O        1.4751213187814511       -0.6912115294624325        0.4314282662061178       -0.1946060569702309
N        2.7760308633093134       -0.0520721666112660       -0.0040560562653358        0.1283355164991325
N        1.6607250209671507       -1.8811917461186261       -0.4749782449707061        0.1235072004109040

        RMSE         9.532948663E+00 kcal/mol

Coordinates in bohr
s                   x[bohr]                   y[bohr]                   z[bohr]                      q[e]
+       -3.5298675488579971        2.8887222179712326        0.2719153654096920        0.0707249461841811
-       -3.0758187764078522       -0.0463531956389790        0.5473757940802221       -0.3496602100029151
+       -2.8018599134891229        0.4243628772115546       -0.3154776147489770        0.9824851761690530
+       -5.8244647666942901       -0.9502494454258701       -0.0006371051466681        0.1071394941056757
-       -2.9120888328934282        0.2400303027199051       -0.6163931678868291       -0.8194842575378962
+       -1.0042290188532979       -1.2221016818230108       -0.3131465357524534        0.3116552922920345
+       -1.6700193018994898       -3.7629236136694124       -0.2150217825772117        0.0918298459672651
+       -2.4889892601215928       -1.7932396599885663       -0.1641561042859442        0.5593901217632046
-       -1.9012500509769656       -1.4721064200304486       -0.1897073962005912       -0.9963138680841535
+        1.4864775265931920        1.4850762314547339       -0.1304710882260320        0.9989733053171830
-        1.4475075188797792        1.6725141840754034       -0.1510201203761410       -0.8354521971080898
+        1.1888027034693651        3.1259361809151764        0.1373916708102168        0.2899344186932475
-        1.1735818387371983        2.3788304392674204        0.0776080156966760       -0.8678253524624289
+        0.9319177744455597       -0.9161243469830351       -0.2275293567905079        0.9219570073558310
-        1.1726979611325223       -0.5876258483992709       -0.5229770526905200       -0.9704818863270434
-        1.4392101541947606       -0.7002999570451439        0.7193296020851874       -0.3320651923316272
+        1.1803210959066981        0.4776005384224119       -0.0403620070322064        0.9769593393400061
-        2.8489006165829824       -0.8276939213716454       -1.2218724464246891       -0.1970026432733326
-        2.7875752943211136       -1.3062004854428220        0.8152812659106754       -0.1946060569702309
+        5.2459380474728583       -0.0984021336545022       -0.0076648354909320        0.1283355164991325
+        3.1383154593231239       -3.5549371896359974       -0.8975787985452516        0.1235072004109040
