25
s                      x[A]                      y[A]                      z[A]                      q[e]
N       -1.6640499482232103        0.1590975685787133       -1.6098590702381723        0.1158659338886357
O       -1.7432864396368299        0.3924645582805908        0.0492564172949067       -0.2341991647481463
N       -3.3768787846033232       -0.1027108946834098        0.0584639365349437        0.0569852111266852
N       -2.1260465635342594       -0.1037798476348274        0.0538531078073681        0.3189271149812888
O       -1.8589804821991178       -0.4256514082452215       -0.0002536366256002       -0.2877498234141676
N       -1.3731449419844115       -0.1396292881365177        0.5040555922723235        0.5692545008206258
O       -0.7785768190091379        0.0785971342022159        0.7915214680819751       -0.2058946535748549
O       -1.1387650628960939       -0.1225135807509472        0.2733049073120764       -0.9992971180892700
N       -0.6616109326550433        0.0102027491488257        0.3160405882105351        0.6691943173322236
N       -1.1119520860180285       -0.5088975319562746        1.9662392006776901        0.0628076875181509
N        0.7878879051860180        1.2888002909352538       -0.0300737579438734        0.7576134719858190
O        0.7354078973480422        1.0945379531910924        0.0174058066102234       -0.9235083265987739
N        0.6477266255276787        0.6996209796695457        0.0090199168101154        0.9955526175656415
O        0.7817333882681260        1.1726982531448513       -0.0474521986362650       -0.9936641819349231
O        0.3415544383536464       -0.0985872679329706        0.0108277069628329       -0.9934394819660318
N        0.4580706386649767        0.2253064639766278        0.0514319870382173        0.8475065253219278
N        0.2617732176350449       -0.2989807016180727        0.1141848363003390        0.9207393412409772
O        0.5578102372550531       -0.2438306558919546        0.1864180298216693       -0.6738758902636315
N        2.6439577949645017       -0.7662480557146660       -0.4580825746336446        0.1207489421105395
N        0.8327151130411694       -0.7934748144510100        0.0843700014916337        0.4308753055723465
O        1.0706472697403673       -0.6697641438830677       -0.1880841599315058       -0.7095764258838037
N        1.2539025394142895       -0.4958465373442120       -0.1028572585633123        0.9977500474782615
O        1.1804126006551319       -0.6839516580151414        0.0115924887265061       -0.9963537733476465
O        1.0948472523720298       -2.0705881687908279       -0.2514071720056241       -0.1586318904925156
N        1.0924619046974302       -2.1130057601530452       -0.1688849366385090        0.3123697133706422

        RMSE         4.423238347E-01 kcal/mol

Coordinates in bohr
s                   x[bohr]                   y[bohr]                   z[bohr]                      q[e]
+       -3.1445986612241468        0.3006508318400129       -3.0421927433343230        0.1158659338886357
-       -3.2943339291380789        0.7416505290990989        0.0930811386086379       -0.2341991647481463
+       -6.3813760617691777       -0.1940954610523871        0.1104808282671915        0.0569852111266852
+       -4.0176457350505261       -0.1961154893715662        0.1017676247606805        0.3189271149812888
-       -3.5129639839278641       -0.8043645864989107       -0.0004793037577697       -0.2877498234141676
+       -2.5948678709082160       -0.2638611136706563        0.9525270214001288        0.5692545008206258
-       -1.4712969555574189        0.1485270578880424        1.4957587970952428       -0.2058946535748549
-       -2.1519540901133754       -0.2315171142684522        0.5164714235634610       -0.9992971180892700
+       -1.2502634643267552        0.0192804016180286        0.5972301562465074        0.6691943173322236
+       -2.1012849072055988       -0.9616769613187822        3.7156535864199483        0.0628076875181509
+        1.4888923583622586        2.4354795802779989       -0.0568311660772325        0.7576134719858190
-        1.3897195164866041        2.0683769654503448        0.0328922074860056       -0.9235083265987739
+        1.2240259264142939        1.3220920431999406        0.0170451724455313        0.9955526175656415
-        1.4772620069529458        2.2160785262465832       -0.0896716594733643       -0.9936641819349231
-        0.6454443454229607       -0.1863029358504452        0.0204614007264670       -0.9934394819660318
+        0.8656280531903592        0.4257675112111566        0.0971923695903275        0.8475065253219278
+        0.4946796883101021       -0.5649916428553836        0.2157780682878761        0.9207393412409772
-        1.0541085783887034       -0.4607731606265444        0.3522790212103850       -0.6738758902636315
+        4.9963561197522903       -1.4479989694652700       -0.8656506089021836        0.1207489421105395
+        1.5736035041774665       -1.4994500867608762        0.1594361960236561        0.4308753055723465
-        2.0232301167784663       -1.2656708005907289       -0.3554275508073549       -0.7095764258838037
+        2.3695323875090972       -0.9370141558371580       -0.1943720487000621        0.9977500474782615
-        2.2306565302776211       -1.2924813167014106        0.0219066288055539       -0.9963537733476465
-        2.0689614561931449       -3.9128445576279107       -0.4750907010664978       -0.1586318904925156
+        2.0644538023741541       -3.9930021882040867       -0.3191462769620804        0.3123697133706422
