21
s                      x[A]                      y[A]                      z[A]                      q[e]
N -2.1025935885448392 1.5748290489959529 -0.2672662663849948 0.0690680479201058
O -1.8674967382688434 -0.2387719815364637 0.3605050539114761 -0.3117950550350966
N -1.9786842082076364 -0.3715664311235514 0.0188014565196521 0.5776243102962968
N -3.3176829075434671 -0.5756780642094704 0.0164585325983313 0.0604184539076988
O -1.8353394653501420 -0.3417776135472089 -0.3032816229694327 -0.3968494342195521
O -0.9225706334661707 -0.1587658397081414 0.1462694510343750 -0.9828651838991298
N -0.7615295660929038 -0.0113854555202706 0.1379924504382860 0.7759263489545838
N -0.9944202645581929 -1.3837417055268348 0.1647774755681474 0.9970342621901004
O -0.9939129089037946 -1.4197832527463108 -0.1136135187779574 -0.3970377457969525
O -1.0501872839981852 -1.3639707390291758 0.4327609034342696 -0.3893757401670396
N 1.7986315796080015 -1.2408268110506671 -0.1686014039886064 0.1691966627363242
O 1.4760508815476470 -0.9258629357005427 -0.1036819906929612 -0.6800109224217911
O 0.3605250389761252 0.4218314279069610 -0.3181613953055882 -0.9821368279659007
N 0.2120931357459429 0.4925102281233714 -0.1880100429574650 0.8921713087406896
O 0.5781844970839427 0.4811497726231658 0.3452531768623005 -0.3335771210350215
N 0.7837769115544186 -0.1119856067836282 -0.0816130510877620 0.9988617281482304
N 2.2661408480067289 1.7094854487061182 -0.0232099418302619 0.0655379221577991
N 1.0718135044989934 1.0952329861834951 0.0297403111773762 0.9908754307264420
O 0.9199788610814448 1.0946431416493811 -0.3152171611349007 -0.6595771554465193
O 1.0204955783952592 1.1181098342349842 0.3989247855504239 -0.5578053818499882
N -0.1841887742553527 2.2461247290335420 0.1055870138323024 0.0943160920587207
