21
s                      x[A]                      y[A]                      z[A]                      q[e]
N -0.0487490778594961 -0.2783004736216029 0.3687646340915480 0.0690680479201058
O -0.3112248109399195 0.3453300329768440 0.3652558781601566 -0.3117950550350966
N -0.4093779938782151 -0.0139912843439388 0.2757432456383719 0.5776243102962968
N -0.0204865627447427 0.0539239844640662 -0.3979261690000951 0.0604184539076988
O -0.2458693706533124 -0.3230473824135972 0.3297974538714450 -0.3968494342195521
O 0.3723631323361262 -0.0036024697129635 0.0914178357941090 -0.9828651838991298
N 0.4441940044445292 -0.0030348471420509 0.2977275916945909 0.7759263489545838
N -0.1324750769333397 -0.1810333637960275 -0.2574964397655888 0.9970342621901004
O -0.1445915193100162 -0.4589088741586836 -0.2954330821258820 -0.3970377457969525
O -0.1760426416511611 0.0849760810543814 -0.2059521700619169 -0.3893757401670396
N 0.0451489476294319 -0.0247163967066865 0.4818065026692051 0.1691966627363242
O 0.0343061700548182 -0.0022533493039855 0.0269956349063772 -0.6800109224217911
O 0.1944925124932430 -0.3717380353524301 -0.3220579195436636 -0.9821368279659007
N 0.1336811083564469 -0.2586425154026030 -0.4878236388851497 0.8921713087406896
O 0.3663956430140847 0.3058762623336791 -0.2740852442288809 -0.3335771210350215
N 0.1121940038847582 -0.0762505884687608 0.3306073986203023 0.9988617281482304
N -0.0545081839230195 -0.0524098117314037 0.3689329065433218 0.0655379221577991
N 0.2582569425241626 -0.0098538738439929 0.1436898110695088 0.9908754307264420
O 0.2560925948291382 0.3494077529657450 0.0297768457694191 -0.6595771554465193
O 0.1894534780068786 -0.3682354088929523 0.0644256045142602 -0.5578053818499882
N 0.1430942915564801 0.1385814601147178 -0.3165172300515690 0.0943160920587207
