25
s                      x[A]                      y[A]                      z[A]                      q[e]
N        1.7152566082578262        0.8870830320061865       -1.2675130194766984        0.1158659338886357
O        1.7355930164755584       -0.5422378597384482       -0.3581401803953430       -0.2341991647481463
N        3.3292228226093146       -0.4226664871238025       -0.0817017067591228        0.0569852111266852
N        2.1344939621168848       -0.3438579463309905        0.0496462188100184        0.3189271149812888
O        1.9048288820894048       -0.0062227834466523        0.1870752744114296       -0.2877498234141676
N        1.3728651824337594       -0.6625208267624447        0.5995935543386302        0.5692545008206258
O        0.9851254195114965       -0.2923474712702026       -0.0939108469016920       -0.2058946535748549
O        1.1275806467878371       -0.4828279395472365        0.6081655288532706       -0.9992971180892700
N        0.7023239632783188       -0.2333273415223311        0.3385515171155975        0.6691943173322236
N        1.0624806267500162       -1.4734359694518422        1.4477287436845518        0.0628076875181509
N       -0.8076709701359069        1.5989887270937775        0.1114530746985842        0.7576134719858190
O       -0.7195236548646836        1.2547496309283472        0.0357763499585443       -0.9235083265987739
N       -0.7452267574947044        0.8284148470452761        0.0820133788100467        0.9955526175656415
O       -0.7991692359559883        1.3978606848293846        0.1541612106298526       -0.9936641819349231
O       -0.4769308961059360       -0.2105764483363328        0.2298093402439048       -0.9934394819660318
N       -0.5172299592631942        0.2098855062997962        0.0638568893721902        0.8475065253219278
N       -0.3845932350352624       -0.4800087057245513        0.1410557908709245        0.9207393412409772
O       -0.5789448547262750       -0.3256796441947863       -0.1768888821047245       -0.6738758902636315
N       -2.7271307097504582       -0.3985067132756948       -0.5314022644171826        0.1207489421105395
N       -0.9894148235324199       -0.8043298789879592       -0.1622535619576156        0.4308753055723465
O       -1.3549338846204240       -0.6008513223995073        0.0554581061034340       -0.7095764258838037
N       -1.4733503526199478       -0.4050526547844281       -0.1723047668301385        0.9977500474782615
O       -1.3673971533422009       -0.5810924157704693       -0.2967172196744245       -0.9963537733476465
O       -1.5364985391477162       -2.1005224844715942        0.0604437290690246       -0.1586318904925156
N       -1.4955075755706588       -2.0430740656070014       -0.0996978053812526        0.3123697133706422

        RMSE         7.854047101E-01 kcal/mol

Coordinates in bohr
s                   x[bohr]                   y[bohr]                   z[bohr]                      q[e]
+        3.2413652244889977        1.6763439810324334       -2.3952524672630537        0.1158659338886357
-        3.2797954663960214       -1.0246810497600829       -0.6767868554692592       -0.2341991647481463
+        6.2913193453552747       -0.7987239030733343       -0.1543938497572088        0.0569852111266852
+        4.0336090048442692       -0.6497973446279485        0.0938177567154876        0.3189271149812888
-        3.5996049030109774       -0.0117593564522054        0.3535210334824708       -0.2877498234141676
+        2.5943392019765028       -1.2519829149929116        1.1330676042898273        0.5692545008206258
-        1.8616172421034778       -0.5524566541708337       -0.1774657808539977       -0.2058946535748549
-        2.1308186067956112       -0.9124125714633857        1.1492662884769020       -0.9992971180892700
+        1.3271999419421234       -0.4409247730583701        0.6397696467067276        0.6691943173322236
+        2.0077973981623130       -2.7843904456624284        2.7358108295169372        0.0628076875181509
+       -1.5262769330396926        3.0216507719016685        0.2106157870205174        0.7576134719858190
-       -1.3597026484826942        2.3711331584738655        0.0676075031901832       -0.9235083265987739
+       -1.4082744730279682        1.5654771791786091        0.1549828245744147        0.9955526175656415
-       -1.5102109838482027        2.6415738558724593        0.2913224672594395       -0.9936641819349231
-       -0.9012687744094003       -0.3979318158272887        0.4342767141331340       -0.9934394819660318
+       -0.9774229668891462        0.3966261246096685        0.1206720321370981        0.8475065253219278
+       -0.7267758839204782       -0.9070849916548831        0.2665568131559019        0.9207393412409772
-       -1.0940472171756288       -0.6154453321646975       -0.3342715418163276       -0.6738758902636315
+       -5.1535301497537906       -0.7530685472474125       -1.0042047421965989        0.1207489421105395
+       -1.8697230409444607       -1.5199631858098799       -0.3066147949798966        0.4308753055723465
-       -2.5604539600352778       -1.1354444414542333        0.1048006319720715       -0.7095764258838037
+       -2.7842286532984191       -0.7654385839321846       -0.3256088194198322        0.9977500474782615
-       -2.5840061245474208       -1.0981055193868583       -0.5607142818919695       -0.9963537733476465
-       -2.9035614311552269       -3.9694122160175564        0.1142220939418306       -0.1586318904925156
+       -2.8260997363759714       -3.8608504380228914       -0.1884015474797631        0.3123697133706422
