21
s                      x[A]                      y[A]                      z[A]                      q[e]
N 0.0261854452959918 -0.0461488720663924 0.3778385066395039 0.0707249461841811
O 0.1056686425773613 0.2877514949996577 0.3149748760181783 -0.3496602100029151
N 0.3719688084041330 -0.1770119016120647 0.3122654563554531 0.9824851761690530
N 0.0336470162242611 -0.0128627916207551 -0.1891097199137685 0.1071394941056757
O 0.2596970981228550 -0.3326789575528320 0.3225711937077886 -0.8194842575378962
N 0.0973826928594722 0.1240759558711489 0.2880498441820590 0.3116552922920345
N 0.0289761970042337 -0.0145605052422757 0.2438973814253679 0.0918298459672651
N 0.0860613739444083 0.0370897913419538 -0.5525438823704233 0.5593901217632046
O 0.0516829622751151 0.0614223304417917 -0.1948220785397961 -0.9963138680841535
N 0.2209202413921500 0.0825635496453457 -0.4251488441767443 0.9989733053171830
O 0.2039043784338777 0.1010020447677574 -0.3313224042244442 -0.8354521971080898
N 0.0309663299837300 0.0054494244296882 0.4293133500122494 0.2899344186932475
O 0.0383688433867031 -0.0010020406095064 0.0389757980811041 -0.8678253524624289
N -0.0036211113507623 0.0768167682086102 -0.3487301986246982 0.9219570073558310
O 0.1243491869961462 0.2429794009377967 -0.1800036483346931 -0.9704818863270434
O 0.2618654441410923 -0.4174449438174628 -0.2013315263259215 -0.3320651923316272
N 0.0870877514799709 0.0115269733103853 0.3978296540603318 0.9769593393400061
O 0.1982557183453201 -0.5144729281531515 -0.0947541612175994 -0.1970026432733326
O 0.2290008089410743 0.4897754577393352 -0.0733772803860467 -0.1946060569702309
N 0.0224289492734718 -0.0005628154615454 0.1837126239999750 0.1283355164991325
N 0.0380220433508160 0.0043237891971567 -0.1484854932673244 0.1235072004109040
