25
s                      x[A]                      y[A]                      z[A]                      q[e]
N        1.9344399067243170        1.2972728369521465       -0.0035849305224171        0.1158659338886357
O        1.7772961733014383       -0.3368156412946290       -0.4400596726526964       -0.2341991647481463
N        3.2848141878940327       -0.6804510594766753       -0.0061586825676079        0.0569852111266852
N        2.0903014517000025       -0.5452351020806598        0.0325451579555663        0.3189271149812888
O        1.8388328077074929       -0.3774597101848610        0.3395390283931324       -0.2877498234141676
N        1.2784437507012312       -0.9727723704244100        0.1148511244207713        0.5692545008206258
O        0.8263642196383092       -0.5374897942742483       -0.4970900229954679       -0.2058946535748549
O        1.0758166934576916       -0.7520174748295203        0.1671681162452799       -0.9992971180892700
N        0.6544909961300097       -0.4296779837447411       -0.0182164027095934        0.6691943173322236
N        0.7587209818707696       -2.1670935856506852        0.0208081960362844        0.0628076875181509
N       -0.5330365896508333        1.6299696810765427        0.0046078601666628        0.7576134719858190
O       -0.5195649065683098        1.2758277368166027       -0.0753888163668689       -0.9235083265987739
N       -0.6038975600110227        0.8596987072717597       -0.0099327654332264        0.9955526175656415
O       -0.5485814154336501        1.4302466701341441        0.0517017136443897       -0.9936641819349231
O       -0.4826773755013478       -0.2017993613596957        0.1161516066757782       -0.9934394819660318
N       -0.4878423781582527        0.2194144770280537       -0.0526817752021208        0.8475065253219278
N       -0.4557481168845251       -0.4828753419059106        0.0198796705264128        0.9207393412409772
O       -0.6842655325992367       -0.2986376018475543       -0.2567339087426260       -0.6738758902636315
N       -2.8512240605308037       -0.0221656293551848       -0.0228426444798887        0.1207489421105395
N       -1.1638251402211157       -0.7068397070052381       -0.0756358382132322        0.4308753055723465
O       -1.4232973194630425       -0.4378300298689002        0.2119646819990037       -0.7095764258838037
N       -1.5647349404148514       -0.2314384581746772        0.0079219831995663        0.9977500474782615
O       -1.5238833981958759       -0.4264977692593013       -0.1261584141949350       -0.9963537733476465
O       -1.8341627013862118       -1.8835878403855146        0.3707463938674487       -0.1586318904925156
N       -1.8277089076106416       -1.8386664046720023        0.2017307018727545        0.3123697133706422

        RMSE         3.502657759E-01 kcal/mol

Coordinates in bohr
s                   x[bohr]                   y[bohr]                   z[bohr]                      q[e]
+        3.6555616298651459        2.4514903718352645       -0.0067745368661628        0.1158659338886357
-        3.3586030113639516       -0.6364893168172929       -0.8315922601722202       -0.2341991647481463
+        6.2073991881378925       -1.2858661441885317       -0.0116382233464103        0.0569852111266852
+        3.9500972633599192       -1.0303450169184887        0.0615014352457853        0.3189271149812888
-        3.4748903970738203       -0.7132954756440721        0.6416357725670696       -0.2877498234141676
+        2.4159085556284112       -1.8382733625145475        0.2170371703561391        0.5692545008206258
-        1.5616020549940837       -1.0157085064070004       -0.9393640031589683       -0.2058946535748549
-        2.0329989118306555       -1.4211070689861691        0.3159019566122766       -0.9992971180892700
+        1.2368087342637977       -0.8119737114164812       -0.0344240121121794        0.6691943173322236
+        1.4337748613742085       -4.0952133651161811        0.0393217916734147        0.0628076875181509
+       -1.0072931692881235        3.0801962900345070        0.0087075937393992        0.7576134719858190
-       -0.9818353778131905        2.4109650058460681       -0.1424642158558149       -0.9235083265987739
+       -1.1412009962530663        1.6245951071537661       -0.0187702063372124        0.9955526175656415
-       -1.0366686326856029        2.7027744984015567        0.0977020790047427       -0.9936641819349231
-       -0.9121280466523153       -0.3813455252621219        0.2194947256491200       -0.9934394819660318
+       -0.9218884871111275        0.4146332695435795       -0.0995541269349440        0.8475065253219278
+       -0.8612391231048950       -0.9125021489389804        0.0375671327592562        0.9207393412409772
-       -1.2930744537030929       -0.5643432782553963       -0.4851567746418463       -0.6738758902636315
+       -5.3880325967190119       -0.0418869688797077       -0.0431663420481907        0.1207489421105395
+       -2.1993107729404624       -1.3357334608387552       -0.1429310194924464        0.4308753055723465
-       -2.6896421288834080       -0.8273788459532421        0.4005551972478779       -0.7095764258838037
+       -2.9569204963186428       -0.4373553008483664        0.0149703786176584        0.9977500474782615
-       -2.8797222697222011       -0.8059639770187862       -0.2384048512504984       -0.9963537733476465
-       -3.4660651751498297       -3.5594651515711968        0.7006091464105957       -0.1586318904925156
+       -3.4538692724438174       -3.4745759409102979        0.3812157776358886        0.3123697133706422
