25
s                      x[A]                      y[A]                      z[A]                      q[e]
N 1.9888843550135065 1.3601332608693393 -0.4989767323413309 0.1158659338886357
O 1.8169104541270924 -0.3198158554439958 -0.4357851012565578 -0.2341991647481463
N 3.3496865128243343 -0.5286557936824798 0.0309628018813401 0.0569852111266852
N 2.1545093933823063 -0.3967008740440588 0.0590703847013020 0.3189271149812888
O 1.9163636151687469 -0.1531117492607934 0.3228529165904291 -0.2877498234141676
N 1.3899267293957047 -0.7406615158360575 0.0589712374841232 0.5692545008206258
O 0.7114724438019886 -0.6990618167151352 0.6124041953025616 -0.2058946535748549
O 1.0966448292257180 -0.7259132854716406 -0.0203744153498748 -0.9992971180892700
N 0.5633031676509499 -0.6186192166478024 0.1204096939575074 0.6691943173322236
N 0.8464385144342389 -1.9600554426730961 0.5413040070391918 0.0628076875181509
N -1.7216064546582937 -1.0947669215961695 -0.1339885716141614 0.7576134719858190
O -1.4614738909406215 -0.8679288092864157 -0.0205293662444967 -0.9235083265987739
N -1.2088751693116535 -0.5216275387342374 -0.0493247845572537 0.9955526175656415
O -1.5820277443356436 -0.9462709097296558 -0.1625450389780201 -0.9936641819349231
O -0.3370063046756342 0.1164330270102687 -0.0700064874016244 -0.9934394819660318
N -0.6635301547218486 -0.1715458680021869 0.0580669958668413 0.8475065253219278
N -0.1225842214492924 0.2832729958411351 0.0532200216173644 0.9207393412409772
O -0.4374814734210131 0.3157253171952388 0.3031507998783831 -0.6738758902636315
N -2.0911864672250715 1.7175379875110699 -0.0372833591466561 0.1207489421105395
N -0.4501625535303165 0.9501498826495304 0.1556772636399507 0.4308753055723465
O -0.7883311120801612 0.9749495562499791 -0.1720925940613513 -0.7095764258838037
N -1.0572433479582188 0.9240901463843935 -0.0008178608300152 0.9977500474782615
O -0.9041691065976954 1.0183874353477445 0.1584643862473247 -0.9963537733476465
O -0.0089892295304572 2.2692107186769839 -0.1561558697000086 -0.1586318904925156
N -0.0564101396655010 2.2228260624130933 0.0057873670416075 0.3123697133706422
