21
s                      x[A]                      y[A]                      z[A]                      q[e]
N -1.9128391486439533 1.3692131516951271 0.5984007523189414 0.0707249461841811
O -1.5754358787689040 -0.1567062571043548 0.3694370549524192 -0.3496602100029151
N -1.5095903825058508 0.1926798267285447 -0.0465988560629850 0.9824851761690530
N -3.0385211419137330 -0.6615551660681647 0.1183541933098914 0.1071394941056757
O -1.5853915200545461 0.1239922598715221 -0.2056194040441213 -0.8194842575378962
N -0.4923564895996161 -0.6240996661701691 -0.2873155373623719 0.3116552922920345
N -0.7985685843872062 -1.9320610740745630 -0.5355696010715982 0.0918298459672651
N -1.2697134779996762 -0.9553934336442075 -0.2610362006240577 0.5593901217632046
O -0.9654291165196713 -0.7732285759973647 -0.2562550055284261 -0.9963138680841535
N 0.7551528168403003 0.8778072790510089 -0.1489105066733818 0.9989733053171830
O 0.7307975186954673 0.9751355757275580 -0.1665453545721821 -0.8354521971080898
N 0.5587339260575129 1.7332549156785191 -0.0867722026532717 0.2899344186932475
O 0.5579556272450441 1.3459609134527151 -0.0776087163727391 -0.8678253524624289
N 0.5290351331395937 -0.4094136036194015 -0.1600953948724854 0.9219570073558310
O 0.6610712660803588 -0.2366700531143957 -0.3136509342788545 -0.9704818863270434
O 0.7467792435023318 -0.2580684763774644 0.3554213831221111 -0.3320651923316272
N 0.6155521212314965 0.3377561814761545 -0.0880442164854374 0.9769593393400061
O 1.5723692032385976 -0.5824711185552159 -0.3987737750885880 -0.1970026432733326
O 1.4101423842929537 -0.5269214850887904 0.5912476493836579 -0.1946060569702309
N 2.7395756592679943 -0.0437743598696671 0.3068838443726615 0.1283355164991325
N 1.6511166881836192 -1.9281720558497693 0.1651723778281785 0.1235072004109040
