25
s                      x[A]                      y[A]                      z[A]                      q[e]
N       -1.9317702855449037        1.2937717340207655        0.0033653064652314        0.1158659338886357
O       -1.7801542184735148       -0.3268753701357933        0.4420499484479143       -0.2341991647481463
N       -3.2837985760745352       -0.6830720140557746        0.0064080089170024        0.0569852111266852
N       -2.0854231371052592       -0.5574073043678286       -0.0324530488691556        0.3189271149812888
O       -1.8432163867930242       -0.3659522857114154       -0.3403070912225028       -0.2877498234141676
N       -1.2862924734830605       -0.9631396943315478       -0.1180633908583777        0.5692545008206258
O       -0.8229314888844954       -0.5398370334544770        0.4968894415157774       -0.2058946535748549
O       -1.0655516525073685       -0.7592127281282894       -0.1628757304510449       -0.9992971180892700
N       -0.6603582894861380       -0.4259233853059143        0.0161006127280319        0.6691943173322236
N       -0.7579193436596443       -2.1727380041859106       -0.0214573540534864        0.0628076875181509
N        0.5317608626893127        1.6232105776807693       -0.0046771761682538        0.7576134719858190
O        0.5195327193465785        1.2764247527137529        0.0748996412875109       -0.9235083265987739
N        0.6010763535894759        0.8547343043730209        0.0098763629155934        0.9955526175656415
O        0.5482649729232181        1.4300273791515810       -0.0513002742209068       -0.9936641819349231
O        0.4841369138006832       -0.2038316024781209       -0.1152372537985209       -0.9934394819660318
N        0.4850585276183916        0.2180905113870139        0.0524576135554100        0.8475065253219278
N        0.4535313714879067       -0.4786585071190116       -0.0197158071267904        0.9207393412409772
O        0.6843801338837874       -0.3004490011963871        0.2547020722573018       -0.6738758902636315
N        2.8517543089234869       -0.0232317290181643        0.0234524915171384        0.1207489421105395
N        1.1642698706884143       -0.7039187911960741        0.0765742478535923        0.4308753055723465
O        1.4215436319526111       -0.4391774925676825       -0.2118595514899390       -0.7095764258838037
N        1.5636447997998335       -0.2313711051189671       -0.0065569469387037        0.9977500474782615
O        1.5210458239171414       -0.4277813372165598        0.1239711042153793       -0.9963537733476465
O        1.8313251965326480       -1.8853025210528305       -0.3704692270832486       -0.1586318904925156
N        1.8309932450510300       -1.8336682627174998       -0.2006142540225957        0.3123697133706422

        RMSE         5.091443548E-01 kcal/mol

Coordinates in bohr
s                   x[bohr]                   y[bohr]                   z[bohr]                      q[e]
+       -3.6505167769773332        2.4448742461579172        0.0063595075475199        0.1158659338886357
-       -3.3640039339933634       -0.6177049267143062        0.8353533363393099       -0.2341991647481463
+       -6.2054799599492645       -1.2908190305302940        0.0121093818626261        0.0569852111266852
+       -3.9408785848220305       -1.0533471455849091       -0.0613273742988030        0.3189271149812888
-       -3.4831741609947593       -0.6915495949798692       -0.6430872009617239       -0.2877498234141676
+       -2.4307404921207101       -1.8200702428437927       -0.2231074741652153        0.5692545008206258
-       -1.5551151340069393       -1.0201441456085767        0.9389849590965140       -0.2058946535748549
-       -2.0136007957679354       -1.4347041271241399       -0.3077905230363667       -0.9992971180892700
+       -1.2478963118045983       -0.8048785486560271        0.0304257485080407        0.6691943173322236
+       -1.4322599847034798       -4.1058797702852150       -0.0405485225380717        0.0628076875181509
+        1.0048823947199870        3.0674234357628429       -0.0088385819985180        0.7576134719858190
-        0.9817745527793790        2.4120932023842268        0.1415398089284292       -0.9235083265987739
+        1.1358696887729598        1.6152137452987207        0.0186636210260998        0.9955526175656415
-        1.0360706430064339        2.7023600985027296       -0.0969434684383982       -0.9936641819349231
-        0.9148861743076756       -0.3851859043968397       -0.2177668491290793       -0.9934394819660318
+        0.9166277720165821        0.4121313370824981        0.0991305228148290        0.8475065253219278
+        0.8570500814154169       -0.9045334860754382       -0.0372574758119835        0.9207393412409772
-        1.2932910187445192       -0.5677663269285230        0.4813171601528708       -0.6738758902636315
+        5.3890346209596469       -0.0439016052651819        0.0443187859270145        0.1207489421105395
+        2.2001511917233039       -1.3302137299239152        0.1447043567062164        0.4308753055723465
-        2.6863281397790568       -0.8299251814182107       -0.4003565293783156       -0.7095764258838037
+        2.9548604291180207       -0.4372280220193616       -0.0123908339333092        0.9977500474782615
-        2.8743600314747497       -0.8083895689214182        0.2342714344376574       -0.9963537733476465
-        3.4607030680969366       -3.5627054284250410       -0.7000853770973837       -0.1586318904925156
+        3.4600757707097385       -3.4651308214801277       -0.3791059969657323        0.3123697133706422
