25
s                      x[A]                      y[A]                      z[A]                      q[e]
N -1.8898092945246767 1.2255833267705862 -0.8985635860030645 0.1158659338886357
O -1.8724890760635433 0.0555595493998941 0.3587221202475727 -0.2341991647481463
N -3.3603916461815793 -0.4100990961584547 0.0412847597507704 0.0569852111266852
N -2.1536121662506278 -0.3578615649252356 0.0198724600030925 0.3189271149812888
O -1.8663137235965630 -0.3661189545133557 -0.3010975041511826 -0.2877498234141676
N -1.3805261354087566 -0.6570887384775885 0.4593549317207767 0.5692545008206258
O -0.8708404613968721 -0.5907616999622173 -0.2506732572097241 -0.2058946535748549
O -1.0763971902812384 -0.6626531120082282 0.4578926141466407 -0.9992971180892700
N -0.5931140273845159 -0.5649964733465089 0.1882890607660962 0.6691943173322236
N -0.9223023203660170 -1.7683199813757300 0.9712738907146561 0.0628076875181509
N 1.6491381833569592 -1.1534096482186358 -0.2220408470192696 0.7576134719858190
O 1.3826487566286705 -0.9072852032215802 -0.2421309989006314 -0.9235083265987739
N 1.1682659166067304 -0.5563876749322225 -0.1177493973070056 0.9955526175656415
O 1.5313952532622634 -1.0033679359297951 -0.1447566912689126 -0.9936641819349231
O 0.3730997624212666 0.1085561801851875 0.1895735088652274 -0.9934394819660318
N 0.6359979313464311 -0.1774257187984415 -0.0450568215859494 0.8475065253219278
N 0.1443654820438957 0.2942775503467581 0.1428254699205760 0.9207393412409772
O 0.3834857758813555 0.3392292835888700 -0.1788570647877710 -0.6738758902636315
N 2.1459440811857875 1.6526790894208225 -0.1358021403709553 0.1207489421105395
N 0.4736278844154094 0.9568550086235429 0.0620988871482301 0.4308753055723465
O 0.8953313871908347 0.9182938609930262 0.2696688056341578 -0.7095764258838037
N 1.0964173732977927 0.8941965206274735 0.0182344229436111 0.9977500474782615
O 0.9095045864165808 1.0174350086576607 -0.0687737460767543 -0.9963537733476465
O 0.2339268555191500 2.2039373043962236 0.7051489035482175 -0.1586318904925156
N 0.2274964448028323 2.1861640904955371 0.5311700149819142 0.3123697133706422
