21
s                      x[A]                      y[A]                      z[A]                      q[e]
N 0.0260385412717998 -0.0449382160500618 0.3762170902322356 0.0707249461841811
O 0.1030934180821125 0.2921679616634371 0.3036076220243213 -0.3496602100029151
N 0.3755151751583089 -0.1820324430819041 0.3286955747863641 0.9824851761690530
N 0.0397449003839691 -0.0110969796558832 -0.1892617047979416 0.1071394941056757
O 0.2563126504858475 -0.3283486016008302 0.3156351052348964 -0.8194842575378962
N 0.0965376717102324 0.1253671487989633 0.2904581776604356 0.3116552922920345
N 0.0306387615087300 -0.0151631692501430 0.2467085910443654 0.0918298459672651
N 0.0842695025795411 0.0392289231579726 -0.5514567120848243 0.5593901217632046
O 0.0536151189042956 0.0590767112432079 -0.1993662152430912 -0.9963138680841535
N 0.2263361914264080 0.0813642380356991 -0.4261857094362713 0.9989733053171830
O 0.2004226850947323 0.1025127077188307 -0.3299236556150139 -0.8354521971080898
N 0.0343810208265807 0.0046798701744392 0.4299636811526455 0.2899344186932475
O 0.0345615359747842 0.0002713675079929 0.0407175843368179 -0.8678253524624289
N 0.0014458623314719 0.0769767322543167 -0.3481639221246326 0.9219570073558310
O 0.1209134456237234 0.2443619654590322 -0.1812600475159658 -0.9704818863270434
O 0.2578080681482751 -0.4171098083084582 -0.2012650580661935 -0.3320651923316272
N 0.0924950554416820 0.0103714392835581 0.3959888101322843 0.9769593393400061
O 0.1984331585678809 -0.5156498891490784 -0.1022931612087340 -0.1970026432733326
O 0.2305676037528177 0.4887456877524918 -0.0738198595142448 -0.1946060569702309
N 0.0218035307869447 0.0002098845841216 0.1837674575533750 0.1283355164991325
N 0.0365203364738078 0.0044346301655026 -0.1431682800684169 0.1235072004109040
