21
s                      x[A]                      y[A]                      z[A]                      q[e]
N        1.7460919311132028        0.9870123340048514       -1.3555840125716954        0.0707249461841811
O        1.5715928513435875       -0.2522642041374877       -0.4051269206026851       -0.3496602100029151
N        1.4676893882936555        0.2388921990095612       -0.1867728481039037        0.9824851761690530
N        3.0799329143328098       -0.4747514143402302       -0.0524579666961819        0.1071394941056757
O        1.5733191561168247        0.2670829279510902       -0.0323841472599051       -0.8194842575378962
N        0.5495863146491329       -0.4883465469852856        0.4444319739957488        0.3116552922920345
N        1.0118241293501851       -1.4316803202942465        1.2975240039358951        0.0918298459672651
N        1.3645198408056642       -0.7063691685026299        0.5132830300367219        0.5593901217632046
O        1.0363769380947943       -0.5803638854621019        0.4714948984321037       -0.9963138680841535
N       -0.8771985561296796        0.8353409083233504        0.1515568463928928        0.9989733053171830
O       -0.8686582848664024        0.9334963708457793        0.1775898932753553       -0.8354521971080898
N       -0.7868190532080133        1.7107158049160667        0.1159282810697217        0.2899344186932475
O       -0.7355657460566096        1.3248669382954026        0.1108546234710545       -0.8678253524624289
N       -0.4904669025923674       -0.4127851028914649        0.1893642718269741        0.9219570073558310
O       -0.6610553511439897       -0.2670657247951135        0.3301217482892803       -0.9704818863270434
O       -0.6619541430178272       -0.2861053371072689       -0.3453942995959897       -0.3320651923316272
N       -0.6625892695270996        0.3153298040854058        0.1074369712366090        0.9769593393400061
O       -1.5062935732942064       -0.7334429081453028        0.3152563390688987       -0.1970026432733326
O       -1.2589424225933019       -0.6288786643778747       -0.6535251396704770       -0.1946060569702309
N       -2.6616460992963469       -0.3337220829957313       -0.5057580996884516        0.1283355164991325
N       -1.3527314701409887       -2.0543622483262536       -0.2704281891042626        0.1235072004109040

        RMSE         7.670221520E-01 kcal/mol

Coordinates in bohr
s                   x[bohr]                   y[bohr]                   z[bohr]                      q[e]
+        3.2996355396757298        1.8651829937180757       -2.5616825238096856        0.0707249461841811
-        2.9698800697667380       -0.4767102570764372       -0.7655789259891733       -0.3496602100029151
+        2.7735309811157394        0.4514408296364385       -0.3529495305881134        0.9824851761690530
+        5.8202296928721777       -0.8971501507767873       -0.0991311901541716        0.1071394941056757
-        2.9731423129972270        0.5047135866129460       -0.0611971691277162       -0.8194842575378962
+        1.0385676169865528       -0.9228412281152131        0.8398547122485606        0.3116552922920345
+        1.9120704916016655       -2.7054837045638691        2.4519650086463067        0.0918298459672651
+        2.5785687918760205       -1.3348442719373426        0.9699643516145485        0.5593901217632046
-        1.9584685757397229       -1.0967287966299486        0.8909962275872315       -0.9963138680841535
+       -1.6576650287321406        1.5785655381223078        0.2864009321206485        0.9989733053171830
-       -1.6415262550074290        1.7640524800073385        0.3355962609397063       -0.8354521971080898
+       -1.4868725208551756        3.2327843497835085        0.2190727014168713        0.2899344186932475
-       -1.3900178073150538        2.5036356660521468        0.2094848781010422       -0.8678253524624289
+       -0.9268481195011765       -0.7800507931337989        0.3578466116997308        0.9219570073558310
-       -1.2492135674304958       -0.5046810773596564        0.6238396923240661       -0.9704818863270434
-       -1.2509120379158356       -0.5406607301645250       -0.6527006315307500       -0.3320651923316272
+       -1.2521122530733786        0.5958869689156899        0.2030264513858813        0.9769593393400061
-       -2.8464823180632877       -1.3860062250539447        0.5957481401546894       -0.1970026432733326
-       -2.3790563864217322       -1.1884084418178951       -1.2349835300787764       -0.1946060569702309
+       -5.0297821705632275       -0.6306433388792391       -0.9557442941431717        0.1283355164991325
+       -2.5562919998544023       -3.8821820118164037       -0.5110352140105749        0.1235072004109040
