25
s                      x[A]                      y[A]                      z[A]                      q[e]
N 0.1038301595674442 -0.0093351633867376 0.2126584668309691 0.1158659338886357
O -0.1625263999293144 0.4059036189360786 0.3063268014591178 -0.2341991647481463
N -0.0819337182892969 -0.0099811031849925 -0.3939739317967046 0.0569852111266852
N -0.4821684435245419 0.0174154146663231 0.1527183668437718 0.3189271149812888
O -0.2385017955346166 -0.3888919192617253 0.2843735864216413 -0.2877498234141676
N -0.0310113327247568 0.0709316724136374 -0.5126143423203866 0.5692545008206258
O -0.1563404311974745 -0.4385378770831047 0.0723749511459288 -0.2058946535748549
O -0.0218614241458364 0.1795318444883467 -0.2172652234666438 -0.9992971180892700
N -0.1809916505881052 -0.0181092342864776 0.2674076354409979 0.6691943173322236
N 0.0263147029934581 0.0172269238032485 0.4469235187778123 0.0628076875181509
N 0.0150447024346378 0.0048062694985470 0.1340309577757378 0.7576134719858190
O -0.0155659351929426 -0.0454752111994721 -0.1586439505207461 -0.9235083265987739
N 0.0496567536560700 0.0027751449809441 -0.5908370589961975 0.9955526175656415
O 0.0147856810907816 0.0460209224551385 -0.0371225388260476 -0.9936641819349231
O -0.0758345761889461 0.0823802197705776 -0.1254577982405253 -0.9934394819660318
N -0.0600212889925201 -0.0266347352834370 0.2513917459576722 0.8475065253219278
N -0.1061588908202001 0.0295167447300982 -0.3726897386488457 0.9207393412409772
O 0.1345689331109789 -0.2093571718207790 -0.2165914442643855 -0.6738758902636315
N -0.0522688910476042 0.0237788425953933 0.2226582084205427 0.1207489421105395
N 0.2920968961803272 0.0577194930725855 -0.5002657544514146 0.4308753055723465
O 0.3764104528454811 -0.1753260760135567 -0.1648621092432907 -0.7095764258838037
N 0.4818156559995273 -0.0049791340032458 0.0269543015472644 0.9977500474782615
O 0.3431625230136407 0.0995409956826476 -0.0970908262407275 -0.9963537733476465
O -0.0185626556556630 -0.3496775589194680 -0.0778059904235306 -0.1586318904925156
N -0.0189716715424998 -0.1805329646108391 -0.0571198320687557 0.3123697133706422
