25
s                      x[A]                      y[A]                      z[A]                      q[e]
N        1.9782258491711133        1.3691259261920663       -0.2599002229238306        0.1158659338886357
O        1.8319823024754873       -0.2540013089995519       -0.4074739009163293       -0.2341991647481463
N        3.3476617041016343       -0.5702871333764402        0.0168897430103120        0.0569852111266852
N        2.1221523361407284       -0.4084471298213769       -0.0034466400332427        0.3189271149812888
O        1.9044413280124473       -0.2007458294371378        0.3843824949189355       -0.2877498234141676
N        1.3093166212838183       -0.8097069466794188        0.0083611417812209        0.5692545008206258
O        0.7067180860699156       -0.6838385833052354        0.4984794202859198       -0.2058946535748549
O        1.0536711589834349       -0.6657923194731906       -0.1007679206486717       -0.9992971180892700
N        0.5379408256608424       -0.6135347102678376        0.0649940884591017        0.6691943173322236
N        0.8140823465118192       -2.0856065838838473        0.2583510583524921        0.0628076875181509
N       -1.5797556548978033       -0.9961543751579991       -0.0638196181066534        0.7576134719858190
O       -1.3531517678388654       -0.8183014782505433        0.0009078792419464       -0.9235083265987739
N       -1.0853984326387500       -0.4701404303973621       -0.0258224717066926        0.9955526175656415
O       -1.4562019165124611       -0.8776218423428656       -0.0951236286397072       -0.9936641819349231
O       -0.3173229488843620        0.0923368972215265       -0.0558431592987488       -0.9934394819660318
N       -0.6030188080708412       -0.1566981855295959        0.0327698851743197        0.8475065253219278
N       -0.1204367609955794        0.2421894138300041        0.0086301560302633        0.9207393412409772
O       -0.4116650522536288        0.2991584287627126        0.2326423967674297       -0.6738758902636315
N       -2.0928636206726563        1.7110001872282765       -0.0101710832359003        0.1207489421105395
N       -0.4328066361415809        0.9226007464005972        0.0992648929191198        0.4308753055723465
O       -0.7635507958176395        0.9328984961342661       -0.1537102084674847       -0.7095764258838037
N       -0.9840944751158812        0.8722212050836214        0.0018066202099640        0.9977500474782615
O       -0.8358953236937802        0.9717118638104202        0.1160115319265098       -0.9963537733476465
O       -0.0474730673397140        2.2051669896354502       -0.2386128772461944       -0.1586318904925156
N       -0.0683159049185983        2.1803019408140112       -0.0713649273091391        0.3123697133706422

        RMSE         4.444142223E-01 kcal/mol

Coordinates in bohr
s                   x[bohr]                   y[bohr]                   z[bohr]                      q[e]
+        3.7383050692346500        2.5872730317667938       -0.4911402412714763        0.1158659338886357
-        3.4619448183643136       -0.4799929095169398       -0.7700140760038019       -0.2341991647481463
+        6.3261637814355316       -1.0776864949539120        0.0319169886188553        0.0569852111266852
+        4.0102867118064971       -0.7718532120917211       -0.0065132057158676        0.3189271149812888
-        3.5988725319467227       -0.3793546384640604        0.7263776428169733       -0.2877498234141676
+        2.4742498257362047       -1.5301243711047863        0.0158002680626302        0.5692545008206258
-        1.3355036305798735       -1.2922676364679728        0.9419895835173756       -0.2058946535748549
-        1.9911499167724258       -1.2581651402376530       -0.1904237722578563       -0.9992971180892700
+        1.0165608322016488       -1.1594125708683318        0.1228210269614816        0.6691943173322236
+        1.5383926784773971       -3.9412252489921595        0.4882127445083841        0.0628076875181509
+       -2.9853055329001199       -1.8824589477251894       -0.1206015996528844        0.7576134719858190
-       -2.5570862473945497       -1.5463656819508125        0.0017156431222670       -0.9235083265987739
+       -2.0511057746884247       -0.8884366539558828       -0.0487973994080327        0.9955526175656415
-       -2.7518228055753569       -1.6584649237477442       -0.1797576061888033       -0.9936641819349231
-       -0.5996534667140979        0.1744914470232329       -0.1055282770549489       -0.9934394819660318
+       -1.1395403957539085       -0.2961166550071151        0.0619261081421650        0.8475065253219278
+       -0.2275924937188667        0.4576716626238762        0.0163086313171659        0.9207393412409772
-       -0.7779342041816443        0.5653274984838127        0.4396304150605377       -0.6738758902636315
+       -3.9549390610053807        3.2333217544685096       -0.0192205617150869        0.1207489421105395
+       -0.8178860075882658        1.7434627338401008        0.1875834614900344        0.4308753055723465
-       -1.4429018869707091        1.7629226605452415       -0.2904701966905749       -0.7095764258838037
+       -1.8596690395451894        1.6482591984248296        0.0034140174095491        0.9977500474782615
-       -1.5796132313321642        1.8362692954598701        0.2192300227359104       -0.9963537733476465
-       -0.0897110956074764        4.1671616713113018       -0.4509129880027953       -0.1586318904925156
+       -0.1290983503089682        4.1201735389426446       -0.1348601675774791        0.3123697133706422
