21
s                      x[A]                      y[A]                      z[A]                      q[e]
N       -1.8299032612454811        0.7100287959881824       -1.7815889429145402        0.0690680479201058
O       -1.9127531910920805        0.1539593564860794        0.0705562664925365       -0.3117950550350966
N       -2.0115309766801270       -0.1978684858873548       -0.0429830672864734        0.5776243102962968
N       -3.3617358300258160       -0.2923046903841957       -0.1092779199885289        0.0604184539076988
O       -1.8358782244810197       -0.4460065676117281       -0.2234145633864228       -0.3968494342195521
O       -0.8752506635142063        0.1842352872069972        0.5375354304655739       -0.9828651838991298
N       -0.6893427712627498        0.2962810538546740        0.4900678711773674        0.7759263489545838
N       -1.2227587807329212       -0.6805139232605176        1.0147838660134452        0.9970342621901004
O       -1.1994200055933115       -0.9303096705622538        0.8888762193432214       -0.3970377457969525
O       -1.2968201770241461       -0.4528827828779626        1.1484148479819307       -0.3893757401670396
N        1.3999625221819529       -1.5024010346582379       -0.3282365437717424        0.1691966627363242
O        1.1833532580632420       -1.1280908802541700       -0.2031724775644793       -0.6800109224217911
O        0.4003025818475158        0.4340994162772704       -0.2090111799249319       -0.9821368279659007
N        0.3011929888436017        0.5478895207596711       -0.0539342961063313        0.8921713087406896
O        0.7584857281324404        0.4436536679168608        0.3934920973061353       -0.3335771210350215
N        0.7314565255719434       -0.1709203940752928       -0.0391052173270524        0.9988617281482304
N        2.5674983044280513        1.2593915799542397       -0.3677134998638406        0.0655379221577991
N        1.3025215938736094        0.9436259200378240       -0.0480103761390625        0.9908754307264420
O        1.0871519225164434        0.9619780332934316       -0.3568058781879084       -0.6595771554465193
O        1.3325313668872822        0.9724260164695455        0.3221896492670444       -0.5578053818499882
N        0.3778579676027565        2.3493904453814256        0.1994425856517271        0.0943160920587207

        RMSE         7.318996951E+00 kcal/mol

Coordinates in bohr
s                   x[bohr]                   y[bohr]                   z[bohr]                      q[e]
+       -3.4580159998360669        1.3417599656062347       -3.3667151702524016        0.0690680479201058
-       -3.6145796767595342        0.2909410182104193        0.1333320201057110       -0.3117950550350966
+       -3.8012426388001375       -0.3739172471861180       -0.0812262252035605        0.5776243102962968
+       -6.3527600248874414       -0.5523758100128763       -0.2065053403380133        0.0604184539076988
-       -3.4693070439609142       -0.8428302629416558       -0.4221923372390771       -0.3968494342195521
-       -1.6539840451670944        0.3481542354662890        1.0157947463100148       -0.9828651838991298
+       -1.3026690442507181        0.5598900479473552        0.9260940594113726        0.7759263489545838
+       -2.3106792130839611       -1.2859849395232037        1.9176635832987035        0.9970342621901004
-       -2.2665753199664551       -1.7580304892275564        1.6797326139910682       -0.3970377457969525
-       -2.4506349685433744       -0.8558244265745311        2.1701895410951346       -0.3893757401670396
+        2.6455457528290709       -2.8391264861085443       -0.6202771720954435        0.1691966627363242
-        2.2362135674077477       -2.1317828083070234       -0.3839403388275909       -0.6800109224217911
-        0.7564622470054712        0.8203290079851511       -0.3949738872169106       -0.9821368279659007
+        0.5691722598224824        1.0353611412441197       -0.1019210484103127        0.8921713087406896
-        1.4333302962387762        0.8383839269176833        0.7435922964405978       -0.3335771210350215
+        1.3822525060099133       -0.3229927340576282       -0.0738981508246370        0.9988617281482304
+        4.8518686229463643        2.3799051708211381       -0.6948778073762332        0.0655379221577991
+        2.4614090849159309        1.7831945537546554       -0.0907264620830435        0.9908754307264420
-        2.0544193903210277        1.8178750216311381       -0.6742653897286139       -0.6595771554465193
-        2.5181193369989274        1.8376188483973845        0.6088501975720284       -0.5578053818499882
+        0.7140480730913266        4.4397045035382829        0.3768918646349293        0.0943160920587207
