21
s                      x[A]                      y[A]                      z[A]                      q[e]
N -0.1227549045156943 -0.0010499150710284 0.5358714856339137 0.0690680479201058
O -0.1842524896423458 0.3564725762476687 0.2092967980327316 -0.3117950550350966
N -0.3177551244544317 0.0033052828487326 0.1469993560201879 0.5776243102962968
N -0.1750191708020196 0.0150968224448805 -0.3844922882310458 0.0604184539076988
O -0.1911914841082013 -0.3156276529504655 0.2321189727172423 -0.3968494342195521
O -0.5195116965460640 -0.0730003894387911 0.1028797405821546 -0.9828651838991298
N -0.5929717979083756 -0.0695346369086832 0.3125479772730353 0.7759263489545838
N -0.2160013453252213 -0.0052398575616952 -0.3875648269815716 0.9970342621901004
O -0.2184033398566294 -0.2858785736714294 -0.3819531670101342 -0.3970377457969525
O -0.2621809608433736 0.2642750943382207 -0.3678823564224231 -0.3893757401670396
N -0.0839486602547652 -0.1000456108639314 0.5091136895752599 0.1691966627363242
O -0.1083715943141112 -0.0551857575794672 -0.3189519628142000 -0.6800109224217911
O -0.1323606818284782 0.3428036843248851 0.4680236388678498 -0.9821368279659007
N -0.2882760167810713 0.2204834007842657 0.5549022654659265 0.8921713087406896
O 0.0553656348565167 -0.3288943509034519 0.5385731149496263 -0.3335771210350215
N 0.2651854282923857 0.0782888055652231 -0.0578745553980521 0.9988617281482304
N 1.7850599047031941 -0.0135208074851605 0.3658459073303315 0.0655379221577991
N 0.5750166832535061 -0.0204800871165475 -0.2153864800997212 0.9908754307264420
O 0.4438696236512367 0.3323259346431357 -0.2354841728733686 -0.6595771554465193
O 0.5057471115132006 -0.3855941917038605 -0.1894730105556753 -0.5578053818499882
N -0.6545409234320785 0.0103709726218911 0.9591968480284078 0.0943160920587207
