21
s                      x[A]                      y[A]                      z[A]                      q[e]
N 0.0271231054576619 -0.0449603441100464 0.3787490503258028 0.0707249461841811
O 0.1028710674926092 0.2924526243826477 0.3141916113789449 -0.3496602100029151
N 0.3753741264813021 -0.1822888566221743 0.3124928900607343 0.9824851761690530
N 0.0335331028445446 -0.0109549805320475 -0.1884529051867427 0.1071394941056757
O 0.2564423670797926 -0.3285154103583560 0.3213798045063205 -0.8194842575378962
N 0.1009833456133871 0.1264444631131404 0.2906409786727875 0.3116552922920345
N 0.0297226287869440 -0.0163774713215295 0.2434942902207904 0.0918298459672651
N 0.0906876415473813 0.0399563826395687 -0.5502212082769150 0.5593901217632046
O 0.0474076034302392 0.0582123893210921 -0.1984304811607315 -0.9963138680841535
N 0.2258677925123642 0.0845895397696581 -0.4264363745471044 0.9989733053171830
O 0.2004181766632846 0.0993382277262801 -0.3291987054062156 -0.8354521971080898
N 0.0342615227787460 0.0067922051291073 0.4287731123555397 0.2899344186932475
O 0.0346854381877028 -0.0028705505263653 0.0412786477755126 -0.8678253524624289
N 0.0008968805583535 0.0790052322790320 -0.3510790220122977 0.9219570073558310
O 0.1206887186162213 0.2412130438308114 -0.1782363990897385 -0.9704818863270434
O 0.2582685638914485 -0.4188977749322719 -0.1999477245494726 -0.3320651923316272
N 0.0920047337913753 0.0134739065820404 0.3960177691496377 0.9769593393400061
O 0.1996503894470016 -0.5139263860979872 -0.0956499106890783 -0.1970026432733326
O 0.2307892729142351 0.4900465239053779 -0.0748106521728816 -0.1946060569702309
N 0.0217859852774994 -0.0004075573214573 0.1845379006288145 0.1283355164991325
N 0.0371968763823097 0.0042332404355177 -0.1491174451346746 0.1235072004109040
