21
s                      x[A]                      y[A]                      z[A]                      q[e]
N 1.4881034119874541 0.0287325199291333 0.0951250999022051 0.0707249461841811
O 0.5125747270253314 -0.2088031790986420 0.2620078066965930 -0.3496602100029151
N 0.8160646157192715 0.2453849097340264 0.2288534460225753 0.9824851761690530
N -0.7021974263853664 0.2364752795931325 0.0476178191708427 0.1071394941056757
O 0.7074138092484331 0.3979171216131707 0.2027717365861277 -0.8194842575378962
N -0.0541682805916658 -0.0668960068108075 -0.5966775833489457 0.3116552922920345
N 1.0193519595633806 0.0140774141021775 -0.2232255335008187 0.0918298459672651
N -0.0489819930958348 0.0860112419898321 -0.5687523633352487 0.5593901217632046
O 0.2696994973135000 0.0691452508004582 -0.7235215910293099 -0.9963138680841535
N -1.2231286213831898 0.0329272779783032 -0.3971735558544972 0.9989733053171830
O -1.1935422480658695 0.0158059811649700 -0.3012127646350944 -0.8354521971080898
N -0.9868298415802788 0.0989916470264029 0.4478297543759190 0.2899344186932475
O -1.0053025558822533 0.1089047173599437 0.0609942476643245 -0.8678253524624289
N -0.1309029009920591 0.0305801254078403 0.3526005545249044 0.9219570073558310
O -0.3424177120114757 -0.1269813414002386 0.3166972507477456 -0.9704818863270434
O -0.3717471782485520 0.5394326222059618 0.2142583550824212 -0.3320651923316272
N -0.8375199336180018 0.0987397802656266 0.6114168599381659 0.9769593393400061
O -0.4354332905903218 -0.3558026951132673 -0.6181947319008221 -0.1970026432733326
O -0.1635734056986802 -0.4971688261137370 0.5245996520111823 -0.1946060569702309
N -0.4273433177534430 -0.1745850681295555 0.3855132790029831 0.1283355164991325
N -0.9701379104076943 -0.2176610695794678 0.0906578569801713 0.1235072004109040
