21
s                      x[A]                      y[A]                      z[A]                      q[e]
N        1.9249343892190129        1.3932058884769958        0.5133451012814652        0.0707249461841811
O        1.6640776519104628       -0.0123939271378400       -0.1907459810156119       -0.3496602100029151
N        1.4549458260635941        0.1027458641327673        0.3018213721690393        0.9824851761690530
N        3.0408480304185597       -0.6568609680814345        0.0972236545939733        0.1071394941056757
O        1.4854651919871436       -0.0384864447873585        0.4228115395910506       -0.8194842575378962
N        0.5116101240544261       -0.6233405390055775       -0.0350566317050855        0.3116552922920345
N        0.7940417692470312       -1.9397528667961639       -0.5027013405618387        0.0918298459672651
N        1.2756582277111155       -0.9542375805766844       -0.1810370542086118        0.5593901217632046
O        0.9733142294271819       -0.7723377320406878       -0.1396494023744768       -0.9963138680841535
N       -0.7410556332173216        0.8775689330194569        0.0196865615791749        0.9989733053171830
O       -0.7151082134190200        0.9747831977360507        0.0318183522714962       -0.8354521971080898
N       -0.5569445282850657        1.7329092465059714       -0.0730388811784992        0.2899344186932475
O       -0.5581082820173382        1.3452940045135175       -0.0829516677211183       -0.8678253524624289
N       -0.5160893696310651       -0.4096004715953897       -0.0028265751684319        0.9219570073558310
O       -0.6236428830175317       -0.2368685536856167        0.1674190803856744       -0.9704818863270434
O       -0.8119320489236147       -0.2589763546001831       -0.4799221476834932       -0.3320651923316272
N       -0.6126379536577607        0.3373292314884175       -0.0613468250202604        0.9769593393400061
O       -1.4045123842857972       -0.5634556761970354        0.6150835365272256       -0.1970026432733326
O       -1.5708356947391895       -0.5446098114716480       -0.3755148711597660       -0.1946060569702309
N       -2.7389812158201452       -0.0421457893580758        0.3061359385623105        0.1283355164991325
N       -1.6546609986100440       -1.9278880798603120        0.1573290163682709        0.1235072004109040

        RMSE         4.132880037E-01 kcal/mol

Coordinates in bohr
s                   x[bohr]                   y[bohr]                   z[bohr]                      q[e]
+        3.6375988050993762        2.6327775655966641        0.9700816492673795        0.0707249461841811
-        3.1446510136057193       -0.0234211279093969       -0.3604576636512847       -0.3496602100029151
+        2.7494491386381950        0.1941615437344307        0.5703597322093638        0.9824851761690530
+        5.7463699666289330       -1.2412873321770073        0.1837260800987194        0.1071394941056757
-        2.8071223817563338       -0.0727288401906617        0.7989980125102550       -0.8194842575378962
+        0.9668030174743694       -1.1779429016158043       -0.0662474328036532        0.3116552922920345
+        1.5005214760508712       -3.6656016693164295       -0.9499678565623796        0.0918298459672651
+        2.4106446800609262       -1.8032476859094300       -0.3421104510139388        0.5593901217632046
-        1.8392973276284001       -1.4595067899141352       -0.2638991240716213       -0.9963138680841535
+       -1.4003921905084666        1.6583649396170186        0.0372022097366012        0.9989733053171830
-       -1.3513586734273944        1.8420732754191391        0.0601279715564668       -0.8354521971080898
+       -1.0524726255310750        3.2747238761697739       -0.1380234819372201        0.2899344186932475
-       -1.0546718013625493        2.5422372267509754       -0.1567559336428941       -0.8678253524624289
+       -0.9752675648628856       -0.7740327121736550       -0.0053414529413561        0.9219570073558310
-       -1.1785142489940696       -0.4476166941991200        0.3163762101049332       -0.9704818863270434
-       -1.5343292049474582       -0.4893943831637966       -0.9069214206633273       -0.3320651923316272
+       -1.1577179464740928        0.6374598616242739       -0.1159286979546760        0.9769593393400061
-       -2.6541437461139359       -1.0647769118470443        1.1623394283144926       -0.1970026432733326
-       -2.9684492511503442       -1.0291633889186356       -0.7096202625285402       -0.1946060569702309
+       -5.1759243606735748       -0.0796439992279983        0.5785130810427507        0.1283355164991325
+       -3.1268561178495391       -3.6431804714707594        0.2973087525237038        0.1235072004109040
