21
s                      x[A]                      y[A]                      z[A]                      q[e]
N -2.1167032999717841 1.5981726046722149 0.0309177737745467 0.0690680479201058
O -1.8520160642849839 -0.2609586172478580 0.4098029582999634 -0.3117950550350966
N -1.9807609133194264 -0.3710403093535142 0.0632549265962310 0.5776243102962968
N -3.3221161645730044 -0.5619795900474854 0.1060981451521721 0.0604184539076988
O -1.8663729098496793 -0.2828215082199050 -0.2618769995247984 -0.3968494342195521
O -0.9356785492167345 -0.1354442514145472 0.0839219492500553 -0.9828651838991298
N -0.7538384367693383 -0.0402088033735633 0.0716355373900748 0.7759263489545838
N -0.9908541178637754 -1.4068311281253554 0.0212341477848172 0.9970342621901004
O -1.0373226040941979 -1.3787616178796396 -0.2588449464855143 -0.3970377457969525
O -1.0563456078297422 -1.3879936221064926 0.2936662501169003 -0.3893757401670396
N 1.8207099017970045 -1.2281248849796866 -0.2284282647490508 0.1691966627363242
O 1.4461391783964639 -0.9231867366566633 -0.1428590359057795 -0.6800109224217911
O 0.3484964626277194 0.4378768175748134 -0.3924579210975080 -0.9821368279659007
N 0.2237930650236460 0.4394196912281212 -0.2673327431019674 0.8921713087406896
O 0.5754070979513743 0.4863841848176933 0.2665952001943985 -0.3335771210350215
N 0.7986830386339580 -0.1745942970221155 -0.1435112816731640 0.9988617281482304
N 2.2902903744962093 1.6723619827290066 0.2838265008807805 0.0655379221577991
N 1.0945595870074407 1.0392849856698649 0.1760827256368044 0.9908754307264420
O 0.9617300045004162 1.1580950616882018 -0.1635752984692224 -0.6595771554465193
O 1.0081374616043417 1.1021391203323243 0.5482641583353027 -0.5578053818499882
N -0.1787249074502281 2.2375044134118607 -0.0863660806883263 0.0943160920587207
