21
s                      x[A]                      y[A]                      z[A]                      q[e]
N       -2.1150104549271957        1.6002384952856439        0.0310009537074410        0.0690680479201058
O       -1.8652182018364309       -0.2752335979198935        0.4064656876036161       -0.3117950550350966
N       -1.9545835495771631       -0.3440429557383204        0.0656309364754412        0.5776243102962968
N       -3.3179018773795712       -0.5590071272240397        0.1062005901680835        0.0604184539076988
O       -1.8823277180127056       -0.3013316786119549       -0.2618120075721169       -0.3968494342195521
O       -0.9705110078466547       -0.1715320835068494        0.0774632002692366       -0.9828651838991298
N       -0.7256494472413288       -0.0124622292294420        0.0768128716447728        0.7759263489545838
N       -0.9472565562683752       -1.3632988370158992        0.0293201308776368        0.9970342621901004
O       -1.0545558158578550       -1.3969142764397320       -0.2620386602481883       -0.3970377457969525
O       -1.0741778023963025       -1.4055325240558072        0.2897967337783976       -0.3893757401670396
N        1.8288884754647854       -1.2283383293274739       -0.2262392318827746        0.1691966627363242
O        1.4159147909942789       -0.9289867048271041       -0.1501022486627644       -0.6800109224217911
O        0.3166095827212750        0.4074357716132460       -0.3971870155646033       -0.9821368279659007
N        0.2532644986529548        0.4669849845558519       -0.2616999943410853        0.8921713087406896
O        0.5645856201577397        0.4764099033726548        0.2640688167523721       -0.3335771210350215
N        0.8334418618565383       -0.1508569365573329       -0.1351957435130099        0.9988617281482304
N        2.2900841252187774        1.6734095666763300        0.2834609641674851        0.0655379221577991
N        1.1159310197138188        1.0659497673814788        0.1816013920714308        0.9908754307264420
O        0.9448373064849345        1.1374036538545687       -0.1654616856392755       -0.6595771554465193
O        0.9948650826591141        1.0835781161699034        0.5403595444713205       -0.5578053818499882
N       -0.1751714275899183        2.2396101423875492       -0.0861188816363448        0.0943160920587207

        RMSE         8.331444165E+00 kcal/mol

Coordinates in bohr
s                   x[bohr]                   y[bohr]                   z[bohr]                      q[e]
+       -3.9967905122923684        3.0240124915046049        0.0585833121350599        0.0690680479201058
-       -3.5247515656897761       -0.5201161205929782        0.7681088289667334       -0.3117950550350966
+       -3.6936275980260613       -0.6501469617384353        0.1240244952959044        0.5776243102962968
+       -6.2699258593897511       -1.0563703726323956        0.2006900297796672        0.0604184539076988
-       -3.5570838654020256       -0.5694343455010731       -0.4947529906675919       -0.3968494342195521
-       -1.8340000065722306       -0.3241486595571071        0.1463842333103483       -0.9828651838991298
+       -1.3712787183759712       -0.0235502001563208        0.1451552903185659        0.7759263489545838
+       -1.7900554618915618       -2.5762614291152182        0.0554070173213130        0.9970342621901004
-       -1.9928216759800832       -2.6397854032131800       -0.4951813021509691       -0.3970377457969525
-       -2.0299018565751692       -2.6560715308889420        0.5476364588933850       -0.3893757401670396
+        3.4560983326345429       -2.3212230318313489       -0.4275301870923909        0.1691966627363242
-        2.6756911719640493       -1.7555304463147585       -0.2836521407879933       -0.6800109224217911
-        0.5983054000386947        0.7699420220636198       -0.7505746800050560       -0.9821368279659007
+        0.4786005397554675        0.8824737255117137       -0.4945413163385147        0.8921713087406896
-        1.0669121964698907        0.9002842408301452        0.4990177419356934       -0.3335771210350215
+        1.5749768604005148       -0.2850782942189261       -0.2554829285672305        0.9988617281482304
+        4.3276318009221599        3.1622857767393242        0.5356635895347619        0.0655379221577991
+        2.1088040021619983        2.0143531238464751        0.3431768950168930        0.9908754307264420
-        1.7854837423717858        2.1493813998801707       -0.3126772701148293       -0.6595771554465193
-        1.8800225380066897        2.0476658751006438        1.0211315483279455       -0.5578053818499882
+       -0.3310260231504127        4.2322497969100779       -0.1627411005234111        0.0943160920587207
