21
s                      x[A]                      y[A]                      z[A]                      q[e]
N       -2.0686307567943518        1.6468331374868683        0.0287867706810128        0.0690680479201058
O       -1.8603151838273240       -0.2423061059475279        0.4042122802807196       -0.3117950550350966
N       -1.9906436091800630       -0.3214327815631979        0.0561824253324257        0.5776243102962968
N       -3.3360892001379110       -0.4917847138999141        0.0882573632305257        0.0604184539076988
O       -1.8712498697300641       -0.2546105245900807       -0.2678464795850375       -0.3968494342195521
O       -0.9351693752374456       -0.1565664760070147        0.0841802835961194       -0.9828651838991298
N       -0.7606207740771247       -0.0113510464465105        0.0770472184751671        0.7759263489545838
N       -1.0395474863858172       -1.3706940515323165        0.0028101561899365        0.9970342621901004
O       -1.0650210464717296       -1.3716013594993348       -0.2789928975713781       -0.3970377457969525
O       -1.0876477718547679       -1.3892974122868660        0.2722447465280721       -0.3893757401670396
N        1.7570568025287334       -1.3209205620926312       -0.2017701909006844        0.1691966627363242
O        1.4388886680213075       -0.9944640950984185       -0.1429735651765562       -0.6800109224217911
O        0.3675744080383065        0.3819931439736202       -0.3775936461354683       -0.9821368279659007
N        0.2293981950347249        0.4598452161704186       -0.2480536142965269        0.8921713087406896
O        0.5846818543827518        0.4426827449422702        0.2864809357763964       -0.3335771210350215
N        0.7809787784306922       -0.1605796701907213       -0.1319251480696684        0.9988617281482304
N        2.2826854435846933        1.6670177320373754        0.2556772512207367        0.0655379221577991
N        1.0850698911419143        1.0708654661195010        0.1623063719498333        0.9908754307264420
O        0.9537722866354955        1.1049625328718706       -0.1920346261504891       -0.6595771554465193
O        0.9908557243484094        1.0563893611283492        0.5169202830107581       -0.5578053818499882
N       -0.1121076675398227        2.2329691780610981       -0.0388155657670153        0.0943160920587207

        RMSE         7.867116647E+00 kcal/mol

Coordinates in bohr
s                   x[bohr]                   y[bohr]                   z[bohr]                      q[e]
+       -3.9091455850398855        3.1120636041786187        0.0543991126234734        0.0690680479201058
-       -3.5154862044643762       -0.4578921787669959        0.7638505062773580       -0.3117950550350966
+       -3.7617712347432275       -0.6074199248985543        0.1061693969422685        0.5776243102962968
+       -6.3042949183583197       -0.9293384219574712        0.1667822450607455        0.0604184539076988
-       -3.5361497660884598       -0.4811441601343982       -0.5061564900837523       -0.3968494342195521
-       -1.7672140001142760       -0.2958677600813219        0.1590776811600359       -0.9828651838991298
+       -1.4373649483394990       -0.0214503690212562        0.1455981416463804        0.7759263489545838
+       -1.9644600436772945       -2.5902363591902571        0.0053104255687401        0.9970342621901004
-       -2.0125980956800631       -2.5919509227593678       -0.5272201673578131       -0.3970377457969525
-       -2.0553564097699506       -2.6253916160294462        0.5144680100327422       -0.3893757401670396
+        3.3203561436519435       -2.4961780958408846       -0.3812904010836367        0.1691966627363242
-        2.7191055075850805       -1.8792647813372596       -0.2701808813639858       -0.6800109224217911
-        0.6946149619196837        0.7218624239127236       -0.7135485779090727       -0.9821368279659007
+        0.4334997622899899        0.8689815186640425       -0.4687533954503862        0.8921713087406896
-        1.1048885753082156        0.8365491484067922        0.5413705087822626       -0.3335771210350215
+        1.4758360010286196       -0.3034515979768077       -0.2493023989121447        0.9988617281482304
+        4.3136503189442861        3.1502069598324853        0.4831599813170705        0.0655379221577991
+        2.0504849212385570        2.0236424481765956        0.3067145914018756        0.9908754307264420
-        1.8023684077927480        2.0880765660200282       -0.3628928500291062       -0.6595771554465193
-        1.8724459488606295        1.9962865743799461        0.9768377635844838       -0.5578053818499882
+       -0.2118527882141436        4.2197001931241500       -0.0733507887043554        0.0943160920587207
