25
s                      x[A]                      y[A]                      z[A]                      q[e]
N 2.0136829711549562 1.3982726767342570 -0.2603778210497760 0.1158659338886357
O 1.8404820366889818 -0.2664933609199736 -0.4608999737637799 -0.2341991647481463
N 3.3442190834747101 -0.5679708241977741 0.0237729908032788 0.0569852111266852
N 2.1409559426613454 -0.4312112388385108 0.0669600057161668 0.3189271149812888
O 1.9194578118317061 -0.1875752882635018 0.3203152456798931 -0.2877498234141676
N 1.3694597481745259 -0.7899121682552634 -0.0533159029124213 0.5692545008206258
O 0.7335358615196783 -0.6908496903822370 0.5614662763101151 -0.2058946535748549
O 1.0785971319841960 -0.7128712061347159 -0.0626183152835131 -0.9992971180892700
N 0.5582907372786237 -0.6402684506037257 0.0535611110947862 0.6691943173322236
N 0.8236815259380642 -2.0312613088582103 0.3022125068910956 0.0628076875181509
N -1.7179143231635767 -1.0731855367358307 -0.0696818717617358 0.7576134719858190
O -1.4600662464765013 -0.8558645470604134 0.0233504459865421 -0.9235083265987739
N -1.1967137507747629 -0.5090160654242972 -0.0179065611265726 0.9955526175656415
O -1.5837338918267752 -0.9325454191947089 -0.1064767254225270 -0.9936641819349231
O -0.3401828522970460 0.1173521883270179 -0.0848937302350467 -0.9934394819660318
N -0.6537809150970366 -0.1677443183715156 0.0560303976296232 0.8475065253219278
N -0.1242197192746921 0.2724263524050828 0.0175178944260618 0.9207393412409772
O -0.4171872888164610 0.3210598816092478 0.2750674047349986 -0.6738758902636315
N -2.0809837933630582 1.7284553383595997 -0.0066830707300040 0.1207489421105395
N -0.4447047166176416 0.9501382461996679 0.1190201648657048 0.4308753055723465
O -0.7908982789625019 0.9676313934252594 -0.1891311365297987 -0.7095764258838037
N -1.0448576621089471 0.9236072624615066 0.0001277679049357 0.9977500474782615
O -0.8839383805159156 1.0188656179192321 0.1352912070318916 -0.9963537733476465
O -0.0059887718512239 2.2570728020495037 -0.2508600913254971 -0.1586318904925156
N -0.0666878081905432 2.2182751060913777 -0.0916845879558513 0.3123697133706422
