21
s                      x[A]                      y[A]                      z[A]                      q[e]
N 2.0207400210022364 1.4222584749833040 0.3668171092134798 0.0690680479201058
O 1.8293673854346677 -0.3698142516941522 -0.3252372284511493 -0.3117950550350966
N 1.9118329490950887 -0.5110726848199029 0.0207057549880768 0.5776243102962968
N 3.2459473995599724 -0.7340249870605571 0.0953521408628911 0.0604184539076988
O 1.7419095228666501 -0.4926211513772059 0.3301689868496998 -0.3968494342195521
O 0.5568783643461881 -0.9689598170838438 -0.0376412566568163 -0.9828651838991298
N 0.3353362734215182 -0.9537311588404707 -0.0301341049562022 0.7759263489545838
N 0.9247866671284848 -1.5026587538906413 -0.2362768437960554 0.9970342621901004
O 0.8973060745700308 -1.5525111544456442 0.0385956802521368 -0.3970377457969525
O 0.9988087167763142 -1.4814298619920843 -0.4993896259808514 -0.3893757401670396
N -0.5330038952176291 1.7841523950324429 -0.1549442905313542 0.1691966627363242
O -0.5277103322764911 1.3362604078958102 -0.1105502881477934 -0.6800109224217911
O -0.7299455155290542 -0.3858115339069114 -0.3897634155536964 -0.9821368279659007
N -0.6737881007136423 -0.5572044017868250 -0.2702202484568139 0.8921713087406896
O -0.8797979329651213 -0.3049876157806122 0.2902427581891726 -0.3335771210350215
N -0.6313834993942009 0.2676353568876996 -0.1292396520005538 0.9988617281482304
N -2.9521539576480569 0.0323307015890331 0.2452988851396115 0.0655379221577991
N -1.6823756568132038 -0.3828514737768007 0.1116186800785687 0.9908754307264420
O -1.6142308150442997 -0.4623632622508465 -0.2504720730773066 -0.6595771554465193
O -1.6089286933647400 -0.4458121974656130 0.4713680118003551 -0.5578053818499882
N -1.6012991603482969 -2.0817085623022833 0.0882358769674849 0.0943160920587207
