21
s                      x[A]                      y[A]                      z[A]                      q[e]
N        1.8925182721245513        1.5118543805586129       -0.1118973431980228        0.0707249461841811
O        1.6257553998305936       -0.0298958432666254       -0.3128492687659510       -0.3496602100029151
N        1.4893541171486808        0.2009701873853643        0.1643022311540888        0.9824851761690530
N        3.0779200077765982       -0.5335143427610636       -0.0629287016413123        0.1071394941056757
O        1.5502944515292607        0.0969678238994458        0.3100020147800854       -0.8194842575378962
N        0.5312770272541991       -0.6544856097375513        0.1262135931365380        0.3116552922920345
N        0.8580522102974135       -2.0004623152645724        0.0193589646329909        0.0918298459672651
N        1.3070698751438634       -0.9646939695469364        0.0295149756102940        0.5593901217632046
O        0.9988211616818355       -0.7910927850515617        0.0547909797798926       -0.9963138680841535
N       -0.7556647923975759        0.8096886446180702        0.1489540534494279        0.9989733053171830
O       -0.7360718840178266        0.9085598917490244        0.1628791763775015       -0.8354521971080898
N       -0.5972300530582175        1.6710906018055938        0.0628804556604336        0.2899344186932475
O       -0.5865818406075092        1.2840289585278402        0.0532141529915384       -0.8678253524624289
N       -0.4890650139230102       -0.4677759954228701        0.1304061454685468        0.9219570073558310
O       -0.6060707132474552       -0.2987594241483729        0.2996381826637068       -0.9704818863270434
O       -0.7750160281019333       -0.3250143743141805       -0.3533461740019028       -0.3320651923316272
N       -0.6077799489797400        0.2760974148876468        0.0704508319199880        0.9769593393400061
O       -1.5011486167230894       -0.4588278340092586        0.5771949819153872       -0.1970026432733326
O       -1.4970576220712559       -0.6281531187567584       -0.3888486518149571       -0.1946060569702309
N       -2.7719160001324581       -0.0819748091660343       -0.0533439629418222        0.1283355164991325
N       -1.6355395557402570       -1.8989617969754073        0.3670484466289651        0.1235072004109040

        RMSE         4.673381778E+00 kcal/mol

Coordinates in bohr
s                   x[bohr]                   y[bohr]                   z[bohr]                      q[e]
+        3.5763412217400719        2.8569907208294723       -0.2114553328106245        0.0707249461841811
-        3.0722324526640099       -0.0564949560635345       -0.5911994365173953       -0.3496602100029151
+        2.8144713852340408        0.3797786135402781        0.3104862186828927        0.9824851761690530
+        5.8164258507647997       -1.0081959918220444       -0.1189180115327288        0.1071394941056757
-        2.9296319272071587        0.1832426301515767        0.5858189062744911       -0.8194842575378962
+        1.0039680782578306       -1.2367985554572472        0.2385091243380207        0.3116552922920345
+        1.6214836788058569       -3.7803259001493168        0.0365831412287770        0.0918298459672651
+        2.4700040908582603       -1.8230073973244643        0.0557752205030232        0.5593901217632046
-        1.8874984438903020       -1.4949487035731301        0.1035399459294946       -0.9963138680841535
+       -1.4279995002823651        1.5300897852213062        0.2814823662962256        0.9989733053171830
-       -1.3909742694434515        1.7169293639812677        0.3077970348936181       -0.8354521971080898
+       -1.1286012341726785        3.1579035682390750        0.1188268398422139        0.2899344186932475
-       -1.1084790289151496        2.4264630687744657        0.1005601751522200       -0.8678253524624289
+       -0.9241989338577089       -0.8839685194126390        0.2464319000121669        0.9219570073558310
-       -1.1453076606985759       -0.5645734890399167        0.5662341019643116       -0.9704818863270434
-       -1.4645680359527815       -0.6141881542908366       -0.6677274963419634       -0.3320651923316272
+       -1.1485376481164404        0.5217484980845553        0.1331327776394396        0.9769593393400061
-       -2.8367597592165019       -0.8670589450145237        1.0907404368086659       -0.1970026432733326
-       -2.8290288997438240       -1.1870373593024601       -0.7348174561837789       -0.1946060569702309
+       -5.2381620830248705       -0.1549099385104749       -0.1008054804066156        0.1283355164991325
+       -3.0907218277020534       -3.5885177189907713        0.6936210389034686        0.1235072004109040
