21
s                      x[A]                      y[A]                      z[A]                      q[e]
N 1.8925182721245513 1.5118543805586129 -0.1118973431980228 0.0707249461841811
O 1.6257553998305936 -0.0298958432666254 -0.3128492687659510 -0.3496602100029151
N 1.4893541171486808 0.2009701873853643 0.1643022311540888 0.9824851761690530
N 3.0779200077765987 -0.5335143427610636 -0.0629287016413123 0.1071394941056757
O 1.5502944515292607 0.0969678238994458 0.3100020147800854 -0.8194842575378962
N 0.5312770272541991 -0.6544856097375513 0.1262135931365380 0.3116552922920345
N 0.8580522102974135 -2.0004623152645724 0.0193589646329909 0.0918298459672651
N 1.3070698751438634 -0.9646939695469364 0.0295149756102940 0.5593901217632046
O 0.9988211616818355 -0.7910927850515617 0.0547909797798926 -0.9963138680841535
N -0.7556647923975759 0.8096886446180702 0.1489540534494279 0.9989733053171830
O -0.7360718840178266 0.9085598917490244 0.1628791763775015 -0.8354521971080898
N -0.5972300530582175 1.6710906018055938 0.0628804556604336 0.2899344186932475
O -0.5865818406075092 1.2840289585278402 0.0532141529915384 -0.8678253524624289
N -0.4890650139230102 -0.4677759954228701 0.1304061454685468 0.9219570073558310
O -0.6060707132474552 -0.2987594241483729 0.2996381826637068 -0.9704818863270434
O -0.7750160281019333 -0.3250143743141805 -0.3533461740019028 -0.3320651923316272
N -0.6077799489797400 0.2760974148876468 0.0704508319199880 0.9769593393400061
O -1.5011486167230894 -0.4588278340092586 0.5771949819153872 -0.1970026432733326
O -1.4970576220712559 -0.6281531187567584 -0.3888486518149571 -0.1946060569702309
N -2.7719160001324581 -0.0819748091660343 -0.0533439629418222 0.1283355164991325
N -1.6355395557402570 -1.8989617969754073 0.3670484466289651 0.1235072004109040
