21
s                      x[A]                      y[A]                      z[A]                      q[e]
N 1.2443924578876371 0.1770774034221437 0.3035227571444256 0.0707249461841811
O 0.7348925877554200 -0.4847210654920215 0.2563888882368506 -0.3496602100029151
N 0.9268281865635917 0.0221305140277974 0.3328100250422765 0.9824851761690530
N -0.3639740762602728 -0.6186443138461015 0.2699178022510568 0.1071394941056757
O 0.7861797040589015 0.1434159287310621 0.3683978805989298 -0.8194842575378962
N 0.0852752320669488 -0.2276067394311597 -0.5887289261108412 0.3116552922920345
N 0.7057617960545906 -0.0752520433315884 -0.1729323061177191 0.0918298459672651
N -0.0190944333196932 -0.1224209006295252 -0.3703993048238026 0.5593901217632046
O 0.2620205673795958 -0.0147713706492183 -0.5579611668129388 -0.9963138680841535
N -1.2276385485740440 -0.4638454334913116 0.6056015557420232 0.9989733053171830
O -1.2662038330663001 -0.4762138372735275 -0.4832868790353300 -0.8354521971080898
N -1.1963022369226395 -0.3683627081140094 0.2875644573092523 0.2899344186932475
O -1.1607890210250251 -0.3512990831578511 -0.0977551265851069 -0.8678253524624289
N 0.0624209077387583 -0.3863190957293873 0.4237454602730371 0.9219570073558310
O -0.1244793441804446 -0.5736332745396694 0.3941125106699043 -0.9704818863270434
O -0.1971991207120587 0.0472976066878011 0.1395990793764717 -0.3320651923316272
N -0.6812966711204331 -0.3560709694864889 0.5541476832212840 0.9769593393400061
O 0.0010807410089340 0.5750048281399159 0.3859018223707052 -0.1970026432733326
O -0.1515651954425744 -0.0203172492800028 -0.6400440209276362 -0.1946060569702309
N -0.1225134316079702 0.3419259695108976 0.2528744724612201 0.1283355164991325
N -0.9483284353775174 1.0974020275584115 -0.2022596617342448 0.1235072004109040
