21
s                      x[A]                      y[A]                      z[A]                      q[e]
N 1.9319161081953062 1.2641652691308685 -1.1681402425403864 0.0690680479201058
O 1.8217690415063648 -0.4093453473651330 -0.2495260098985556 -0.3117950550350966
N 1.9827935712690887 -0.2666630986345009 0.0669292612246625 0.5776243102962968
N 3.3383672638036406 -0.3557423133606550 0.1014660923224039 0.0604184539076988
O 1.8729809469155208 -0.0236435777575877 0.2990167915815882 -0.3968494342195521
O 0.9224403006773640 -0.0306875643068609 0.2737706357652682 -0.9828651838991298
N 0.7517576762208631 0.1093883932523129 0.2489646842143635 0.7759263489545838
N 1.0817272289957571 -1.0872634622345987 0.8003643188595083 0.9970342621901004
O 1.1119890792698592 -0.9248802648738756 1.0273252558464281 -0.3970377457969525
O 1.1022154304828429 -1.2640666999124479 0.5918478576848933 -0.3893757401670396
N -1.6701268122828068 -1.3565868048241390 -0.1876886673051334 0.1691966627363242
O -1.3760963103401713 -1.0178733912037843 -0.1499346111196915 -0.6800109224217911
O -0.4883042193494448 0.3925908008759557 0.4211632030402378 -0.9821368279659007
N -0.3171087710520220 0.4963223477759840 0.3389949375213859 0.8921713087406896
O -0.5352160572702684 0.4904158570503481 -0.2713872910961134 -0.3335771210350215
N -0.7806563205552028 -0.1411797055739743 0.0548310629619086 0.9988617281482304
N -2.3730880908954735 1.5701589971458703 -0.1837074953912159 0.0655379221577991
N -1.1507623636082924 1.0482173357384361 0.0105203131036302 0.9908754307264420
O -1.0961457491770312 0.9913556275073092 0.3791113182192524 -0.6595771554465193
O -1.0077945800932533 1.1212364140814732 -0.3256441078516832 -0.5578053818499882
N -0.0333005639373670 2.2567867586553234 0.4371004243507401 0.0943160920587207
