21
s                      x[A]                      y[A]                      z[A]                      q[e]
N 1.8651830277594887 1.2270345486936431 -1.1865582619898283 0.0707249461841811
O 1.6380080987699783 -0.1010557503141629 -0.3752935589071953 -0.3496602100029151
N 1.5324726813492511 0.3694012770013129 -0.1162367137524317 0.9824851761690530
N 3.1314899386228174 -0.3381895011939384 0.0701231332367816 0.1071394941056757
O 1.6076083495822791 0.3697687928882997 0.0572946644043304 -0.8194842575378962
N 0.6728699623513139 -0.2256650045752316 0.1545064459228634 0.3116552922920345
N 0.9589835440607614 -1.4852811060142530 1.1162028347157071 0.0918298459672651
N 1.4357536557294246 -0.5023475084779270 0.3916632671522756 0.5593901217632046
O 1.0992138583867155 -0.4330271616031515 0.3037475614469648 -0.9963138680841535
N -1.2181298708194945 -0.5351518490312934 -0.2296716959278668 0.9989733053171830
O -1.2555825757675934 -0.6252200778102122 -0.2591125060590002 -0.8354521971080898
N -1.6185331573712409 -1.3169129943789144 -0.2827274680724942 0.2899344186932475
O -1.3811050031841889 -1.0209944555827168 -0.2047298557461542 -0.8678253524624289
N -0.2468848843783125 0.3115459348791861 0.0361391967283092 0.9219570073558310
O -0.4099594205604483 0.2653417952106460 -0.1692099950876921 -0.9704818863270434
O -0.6399218233788229 0.3319964984986211 0.4618960623139775 -0.3320651923316272
N -0.7921089398823934 -0.2053400745416743 -0.0450710770053145 0.9769593393400061
O -0.8055252295384658 1.1237619212851353 -0.4133696747178908 -0.1970026432733326
O -1.0463878544574168 0.9736175937325569 0.5505279319901880 -0.1946060569702309
N -2.2084934989327709 1.4693412494701361 -0.1506228984657423 0.1283355164991325
N -0.2194409980089031 2.1970352057701548 0.3886845393989868 0.1235072004109040
