21
s                      x[A]                      y[A]                      z[A]                      q[e]
N        1.8651830277594887        1.2270345486936431       -1.1865582619898283        0.0707249461841811
O        1.6380080987699783       -0.1010557503141629       -0.3752935589071952       -0.3496602100029151
N        1.5324726813492511        0.3694012770013129       -0.1162367137524317        0.9824851761690530
N        3.1314899386228174       -0.3381895011939384        0.0701231332367816        0.1071394941056757
O        1.6076083495822791        0.3697687928882997        0.0572946644043304       -0.8194842575378962
N        0.6728699623513139       -0.2256650045752316        0.1545064459228634        0.3116552922920345
N        0.9589835440607614       -1.4852811060142530        1.1162028347157071        0.0918298459672651
N        1.4357536557294246       -0.5023475084779270        0.3916632671522756        0.5593901217632046
O        1.0992138583867155       -0.4330271616031515        0.3037475614469648       -0.9963138680841535
N       -1.2181298708194945       -0.5351518490312934       -0.2296716959278668        0.9989733053171830
O       -1.2555825757675934       -0.6252200778102122       -0.2591125060590002       -0.8354521971080898
N       -1.6185331573712409       -1.3169129943789144       -0.2827274680724942        0.2899344186932475
O       -1.3811050031841889       -1.0209944555827168       -0.2047298557461542       -0.8678253524624289
N       -0.2468848843783125        0.3115459348791861        0.0361391967283092        0.9219570073558310
O       -0.4099594205604483        0.2653417952106460       -0.1692099950876921       -0.9704818863270434
O       -0.6399218233788229        0.3319964984986211        0.4618960623139775       -0.3320651923316272
N       -0.7921089398823934       -0.2053400745416743       -0.0450710770053145        0.9769593393400061
O       -0.8055252295384658        1.1237619212851353       -0.4133696747178908       -0.1970026432733326
O       -1.0463878544574168        0.9736175937325569        0.5505279319901880       -0.1946060569702309
N       -2.2084934989327709        1.4693412494701361       -0.1506228984657423        0.1283355164991325
N       -0.2194409980089031        2.1970352057701548        0.3886845393989868        0.1235072004109040

        RMSE         1.514929700E+00 kcal/mol

Coordinates in bohr
s                   x[bohr]                   y[bohr]                   z[bohr]                      q[e]
+        3.5246850963176395        2.3187592435057329       -2.2422701470600126        0.0707249461841811
-        3.0953866979571347       -0.1909676914964168       -0.7092020429829733       -0.3496602100029151
+        2.8959536624960891        0.6980672439268650       -0.2196555547153334        0.9824851761690530
+        5.9176583486238687       -0.6390855357617368        0.1325135168765063        0.1071394941056757
-        3.0379394977097740        0.6987617483000248        0.1082712241742018       -0.8194842575378962
+        1.2715399468911031       -0.4264450547473754        0.2919748674120721        0.3116552922920345
+        1.8122162570957590       -2.8067745096840322        2.1093176580723578        0.0918298459672651
+        2.7131811929534781       -0.9492992108293864        0.7401363083198240        0.5593901217632046
-        2.0772131456586775       -0.8183027403143244        0.5739997024104364       -0.9963138680841535
+       -2.3019318410881682       -1.0112904302014987       -0.4340166040730962        0.9989733053171830
-       -2.3727071960976542       -1.1814947151987341       -0.4896516721325425       -0.8354521971080898
+       -3.0585843924041805       -2.4886048904327325       -0.5342774828011363        0.2899344186932475
-       -2.6099102065176787       -1.9293998966622521       -0.3868833570647200       -0.8678253524624289
+       -0.4665448159903324        0.5887364924213812        0.0682931842105460        0.9219570073558310
-       -0.7747110274106322        0.5014233225854385       -0.3197605484058025       -0.9704818863270434
-       -1.2092769878895715        0.6273824567733649        0.8728570562008202       -0.3320651923316272
+       -1.4968689579044629       -0.3880365034648598       -0.0851719917194644        0.9769593393400061
-       -1.5222220709742527        2.1236022614472034       -0.7811554737864026       -0.1970026432733326
-       -1.9773864659299440        1.8398706030817984        1.0403470158761288       -0.1946060569702309
+       -4.1734478628370271        2.7766525463365643       -0.2846360263228951        0.1283355164991325
+       -0.4146833869339634        4.1517948268944771        0.7345073286638079        0.1235072004109040
