25
s                      x[A]                      y[A]                      z[A]                      q[e]
N 1.7922518212731284 1.0703174383603833 -1.0679553924703757 0.1158659338886357
O 1.7840723648028163 -0.4452738492642829 -0.3693387559161001 -0.2341991647481463
N 3.3791396156670976 -0.3529861260584176 0.0293310017111876 0.0569852111266852
N 2.1278298000933211 -0.2528225271885594 0.1012135566264048 0.3189271149812888
O 1.9290350478998237 0.0737139624251546 0.2253711034624743 -0.2877498234141676
N 1.3633101574799402 -0.6124185805643719 0.3207771493691621 0.5692545008206258
O 0.7303607957430032 -0.5365169964263157 0.7370428698704552 -0.2058946535748549
O 1.0823458534139518 -0.4873496788422325 0.2491351269679297 -0.9992971180892700
N 0.5667041449078569 -0.5037357936867985 0.2908449599484193 0.6691943173322236
N 0.9783342013618422 -1.5991672401907500 1.3422073269419248 0.0628076875181509
N -1.4033235276426002 -1.0554938860349818 -0.2059245752318462 0.7576134719858190
O -1.2243645285992364 -0.8705776063411137 -0.1106956604270133 -0.9235083265987739
N -0.9931169815653580 -0.5008370776751766 -0.0751650053518177 0.9955526175656415
O -1.2968365913016191 -0.9363596095088227 -0.2088331083132977 -0.9936641819349231
O -0.3048782611056223 0.1072986148950494 0.0153623242307500 -0.9934394819660318
N -0.5739861285915766 -0.1637481432244523 0.0743927377324327 0.8475065253219278
N -0.1415084576080924 0.2770403402639263 0.1353732465580630 0.9207393412409772
O -0.4563182231588307 0.2988770325459781 0.2765456809927153 -0.6738758902636315
N -2.2268906081327255 1.5512050816675740 -0.1445204471290074 0.1207489421105395
N -0.5246812535641856 0.8996571466413930 0.2068831715283977 0.4308753055723465
O -0.8107368758099558 0.9004594831948476 -0.0827856526851266 -0.7095764258838037
N -1.0353873470094157 0.8013929648112103 0.0035493576969276 0.9977500474782615
O -0.9179633776407575 0.9062250814144560 0.1652076486538491 -0.9963537733476465
O -0.2444939837014455 2.2152245134945807 0.0242755958953872 -0.1586318904925156
N -0.2581684156732004 2.1812012640882679 0.1838121970812368 0.3123697133706422
