21
s                      x[A]                      y[A]                      z[A]                      q[e]
N 0.3163751483980485 1.4721248887476932 -0.1518453661276614 0.0707249461841811
O -0.2541626853817578 0.2095360642773249 0.6196853599790872 -0.3496602100029151
N 0.2392450206265241 0.1865565202019023 0.3838914582175048 0.9824851761690530
N 0.1981438054835943 0.3422144506355850 -0.1983016590000387 0.1071394941056757
O 0.2587340818369364 0.0282292250483611 0.2823469506543849 -0.8194842575378962
N 0.4225931391097833 0.4473992898536334 0.4764390058766254 0.3116552922920345
N 1.7092095833493117 0.3614350617995563 -0.0447482520207058 0.0918298459672651
N 0.6333784626118270 0.5407284236910034 -0.3369780554252867 0.5593901217632046
O 0.4980973573598078 0.4913870593357895 -0.0128515842426136 -0.9963138680841535
N 0.0435914457765698 0.1569923667124327 -0.3922071891601670 0.9989733053171830
O 0.0001672838393194 0.1821355092370155 -0.3035284612232236 -0.8354521971080898
N -0.3590278476620163 0.1611008077547360 0.3902051193305306 0.2899344186932475
O -0.2689224071964634 0.1377295523100759 0.0142286153439034 -0.8678253524624289
N 0.1360276132031575 0.1584096975977685 -0.3271321163161051 0.9219570073558310
O 0.2477028864844206 0.2937041503137907 -0.1268311880735210 -0.9704818863270434
O 0.2183202549331729 -0.3806446115913677 -0.1301205876526935 -0.3320651923316272
N 0.0279351044414220 0.1006464130730217 0.4185319759571755 0.9769593393400061
O 0.3167066839928955 -0.2949516157450940 0.2456323709691094 -0.1970026432733326
O 0.4782982208356975 0.6708570092422913 0.0203356898631063 -0.1946060569702309
N 0.5655001221105426 0.5028242755395014 0.3683513523105141 0.1283355164991325
N -0.3812163462480094 0.3266105633076223 0.1938446303774250 0.1235072004109040
