25
s                      x[A]                      y[A]                      z[A]                      q[e]
N       -2.1603160139689921        0.9126054846876179       -0.2879718122130732        0.1158659338886357
O       -1.7224204170189854       -0.6576134766119485        0.1920829543218456       -0.2341991647481463
N       -2.9309545588837209       -1.3330657390779208       -0.6212280311848576        0.0569852111266852
N       -1.8366896567380682       -0.9155881427174765       -0.3420179453197782        0.3189271149812888
O       -1.5667794695099939       -0.6705726063926032       -0.5746860024866340       -0.2877498234141676
N       -0.9515530399910204       -1.1313826221922345       -0.1991079118168542        0.5692545008206258
O       -0.8022659519638990       -0.6197329999881370        0.5202711989067842       -0.2058946535748549
O       -0.8101249089553615       -0.8554971425876088       -0.2017198682884041       -0.9992971180892700
N       -0.5433233274842588       -0.4642411697228170        0.0989088793014188        0.6691943173322236
N       -0.1968499855487769       -2.1613690384920710        0.0464564089288835        0.0628076875181509
N        0.0839774684525060        1.8351518855024025        0.3108157927530835        0.7576134719858190
O        0.1151987118997714        1.4814541732575732        0.3874594574271933       -0.9235083265987739
N        0.3293810669308531        1.1046578637786526        0.3656805799929284        0.9955526175656415
O        0.1348710123070571        1.6414838098487019        0.2665980074779944       -0.9936641819349231
O        0.5104518018243097        0.0568842146103169        0.2449992697259712       -0.9934394819660318
N        0.3719002806572153        0.4565627197882863        0.3997215396190395        0.8475065253219278
N        0.5400510912818954       -0.2287304433502562        0.3458467672144369        0.9207393412409772
O        0.6326774379775381        0.0032969583914798        0.6598590672213199       -0.6738758902636315
N        2.8096630356825818        0.0158390209753246       -0.5102525978951372        0.1207489421105395
N        1.2329048784015479       -0.2625561755083566        0.6206834388624515        0.4308753055723465
O        1.4178897819532603       -0.6518949238138982        0.0746713643687106       -0.7095764258838037
N        1.5814099198511093       -0.1343641050667637       -0.1067073993802688        0.9977500474782615
O        1.5797440898274495       -0.1054798617054150        0.1425532877438261       -0.9963537733476465
O        2.1068243277766174       -1.1974308087804462        1.1325398536045084       -0.1586318904925156
N        2.1033228156666555       -1.0254478822587085        1.1656472277660823        0.3123697133706422

        RMSE         3.900429664E+00 kcal/mol

Coordinates in bohr
s                   x[bohr]                   y[bohr]                   z[bohr]                      q[e]
+       -4.0824056108421232        1.7245744266502956       -0.5441878569344800        0.1158659338886357
-       -3.2549028610627437       -1.2427093672067495        0.3629841770371142       -0.2341991647481463
+       -5.5387014024522916       -2.5191291540882954       -1.1739508403967558        0.0569852111266852
+       -3.4708404286960981       -1.7302108334526258       -0.6463202466461918        0.3189271149812888
-       -2.9607840963639922       -1.2671985733164512       -1.0859991528339148       -0.2877498234141676
+       -1.7981746394298488       -2.1380032990456490       -0.3762594227456629        0.5692545008206258
-       -1.5160629289914751       -1.1711256408859385        0.9831700768974164       -0.2058946535748549
-       -1.5309142053370910       -1.6166553006023252       -0.3811953051285092       -0.9992971180892700
+       -1.0267322865176831       -0.8772886669383091        0.1869106932556462        0.6691943173322236
+       -0.3719925604875197       -4.0843955387941326        0.0877898896478634        0.0628076875181509
+        0.1586944160845112        3.4679344622170829        0.5873567237703878        0.7576134719858190
-        0.2176940154960876        2.7995426548733637        0.7321922592558823       -0.9235083265987739
+        0.6224400074104066        2.0875008248749545        0.6910361455852079        0.9955526175656415
-        0.2548692755235901        3.1019548399871417        0.5037972197261675       -0.9936641819349231
-        0.9646141056944200        0.1074955864752657        0.4629815207192569       -0.9934394819660318
+        0.7027896764230384        0.8627784994940063        0.7553642363263253        0.8475065253219278
+        1.0205486562774082       -0.4322378944865308        0.6535556714102533        0.9207393412409772
-        1.1955870835338784        0.0062303484069268        1.2469529184483614       -0.6738758902636315
+        5.3094936422625247        0.0299314117387454       -0.9642376648251688        0.1207489421105395
+        2.3298525589198120       -0.4961592642584322        1.1729217100573812        0.4308753055723465
-        2.6794233639767793       -1.2319028685844640        0.1411084280711333       -0.7095764258838037
+        2.9884316406008113       -0.2539113596684238       -0.2016477603885565        0.9977500474782615
-        2.9852836780845293       -0.1993280503744014        0.2693866721194154       -0.9963537733476465
-        3.9813209739496003       -2.2628162827805061        2.1401901494786237       -0.1586318904925156
+        3.9747040750367986       -1.9378156533996844        2.2027540193770574        0.3123697133706422
