21
s                      x[A]                      y[A]                      z[A]                      q[e]
N       -2.1949669315161446        1.5090299122405564        0.0463006262464098        0.0690680479201058
O       -1.8289590832911622       -0.3502811172755125        0.3963325434084794       -0.3117950550350966
N       -1.9539027477600448       -0.4509975269862326        0.0493691610075615        0.5776243102962968
N       -3.2785828230484801       -0.7304128644847485        0.0821057847670460        0.0604184539076988
O       -1.8372408546368821       -0.3716247454272900       -0.2757170760758446       -0.3968494342195521
O       -0.9143421906864861       -0.1873691664064962        0.0745811603181071       -0.9828651838991298
N       -0.7547889726607712       -0.0389790243673557        0.0659337880276507        0.7759263489545838
N       -0.9179913690883396       -1.4187061020364340        0.0100604324257346        0.9970342621901004
O       -0.9396409102901189       -1.4171041418209220       -0.2704544914796321       -0.3970377457969525
O       -0.9617800428844296       -1.4294945384382292        0.2810151151495898       -0.3893757401670396
N        1.8579582602744076       -1.1619184185493467       -0.2320324314032527        0.1691966627363242
O        1.5302530014666182       -0.8274121873955188       -0.1454236685311797       -0.6800109224217911
O        0.3392489637911997        0.4520085501353380       -0.3923678496444017       -0.9821368279659007
N        0.1937108622364821        0.5088806310644592       -0.2630246587511396        0.8921713087406896
O        0.5546099105798659        0.5336271062567821        0.2709094780457202       -0.3335771210350215
N        0.8011067435314366       -0.0605899757350407       -0.1423995876672407        0.9988617281482304
N        2.1943441955968037        1.7488779348048982        0.3462528985507232        0.0655379221577991
N        1.0272409569020859        1.0948336714200673        0.2276872744887910        0.9908754307264420
O        0.8965457608167131        1.1409942228180889       -0.1281364757625062       -0.6595771554465193
O        0.9414413553981416        1.0765567512321648        0.5887530536674603       -0.5578053818499882
N       -0.2935375799532247        2.2531722705589856       -0.0424074243221150        0.0943160920587207

        RMSE         7.658494744E+00 kcal/mol

Coordinates in bohr
s                   x[bohr]                   y[bohr]                   z[bohr]                      q[e]
+       -4.1478863550020622        2.8516532492583129        0.0874955030428991        0.0690680479201058
-       -3.4562317620887093       -0.6619353785700933        0.7489599616481523       -0.3117950550350966
+       -3.6923410690459937       -0.8522618092627557        0.0932941933479229        0.5776243102962968
+       -6.1956236151919928       -1.3802802723873175        0.1551574465255042        0.0604184539076988
-       -3.4718820417657841       -0.7022689903005644       -0.5210297618953671       -0.3968494342195521
-       -1.7278563253485961       -0.3540764088636112        0.1409379671200857       -0.9828651838991298
+       -1.4263444408445336       -0.0736596806918493        0.1245968017862501        0.7759263489545838
+       -1.7347522731110350       -2.6809659853646886        0.0190114619883138        0.9970342621901004
-       -1.7756639767242131       -2.6779387192934916       -0.5110849182964724       -0.3970377457969525
-       -1.8175008739826570       -2.7013531754860014        0.5310416047467197       -0.3893757401670396
+        3.5110322644507233       -2.1957075911833441       -0.4384777475762280        0.1691966627363242
-        2.8917590754317248       -1.5635824270435201       -0.2748109056832898       -0.6800109224217911
-        0.6410876299107269        0.8541723661210627       -0.7414677762627349       -0.9821368279659007
+        0.3660604771532424        0.9616450232619750       -0.4970445692816585        0.8921713087406896
-        1.0480608374606024        1.0084090839459017        0.5119447182971415       -0.3335771210350215
+        1.5138723425317997       -0.1144984600873623       -0.2690962210692072        0.9988617281482304
+        4.1467095546660229        3.3049003236375483        0.6543231484068006        0.0655379221577991
+        1.9412040733981708        2.0689357919134128        0.4302665910357561        0.9908754307264420
-        1.6942259468838079        2.1561665918557931       -0.2421428458725017       -0.6595771554465193
-        1.7790663248822962        2.0343974183414257        1.1125820269584745       -0.5578053818499882
+       -0.5547056336412747        4.2578785048324495       -0.0801384176548764        0.0943160920587207
