24
s                      x[A]                      y[A]                      z[A]                      q[e]
N 1.4040814732241698 -0.2712977771699940 -0.4561754613344336 0.6959175615854226
O 1.6171177625556725 -0.1372784424723274 -0.6295222219095573 -0.4294665048044459
N 1.0373700858760913 -1.4858975213357446 -0.5135401001861308 0.7289443612696791
O 1.0660867141107950 -1.3070378923477235 -0.5306680425317537 -0.8899528116456963
N 2.2534537402303108 -0.5531438765876581 0.0191550512208457 0.4821174903544280
O 1.9845134779153073 -0.5868579207060860 -0.0229593071723958 -0.6035297564939646
N 1.6522780144093860 -0.2907438709960481 -1.9420505510508221 0.0604057803354635
N 0.8423457782890285 1.3911403152835931 1.0638318752213702 0.6991174418445399
O 0.4580051884324224 1.4413438521508708 0.9639827905801132 -0.4131324281244263
O 0.9801585128293118 1.2039836371786028 0.9677725561121511 -0.9286014603942530
O -0.0574730631680973 0.4048552084744930 -0.1440702744738229 -0.1057946580878595
N 0.7172043542786422 0.3548628386060008 -0.0216597101166708 0.9961038253671308
O 0.8370837304299683 0.4019074238736934 -0.3324497824764686 -0.3737552305035935
N -0.4985908784456518 0.2152263659238400 -0.2808531384585166 0.9714181100989372
O -0.8358299634617207 0.4202450933621542 -0.5806555131479112 -0.9973398242463560
N -1.0359740226631950 0.3489022929488090 -0.4003154656272353 0.7637225416907655
O -0.9746139776263200 0.1716784855727601 -0.2442951480741695 -0.9974375214017446
O -2.0376191007376621 -0.6433225394847907 -0.0594598994868955 -0.4871145088925188
N -1.3908429709501262 -0.3363236472809794 0.1715152205684536 0.4662300369825688
N -2.2419672999112579 -0.7202718534210157 -0.1632924471946648 0.6223673236702755
N -1.5099045734644891 -1.6650475628045700 -0.3276391430540791 0.9509229066582735
O -1.5324760828643391 -1.5842803538284054 -0.3490633976390816 -0.9922381659518612
O -1.7898705251653986 -0.6419533668351547 0.7148663948962291 -0.6086911331096487
N -1.9023913450978953 -0.6356395173363282 1.0592538768103041 0.3897866237988844
