24
s                      x[A]                      y[A]                      z[A]                      q[e]
N 1.2429438073122763 0.8344938091387979 0.0859445656878572 0.6959175615854226
O 1.4875123621609552 0.8669912522371028 0.2925042707461810 -0.4294665048044459
N 0.5530049635635224 1.7411670953422420 -0.4651752637557744 0.7289443612696791
O 0.6359451503657407 1.6164392692111846 -0.3566853558712695 -0.8899528116456963
N 2.0099455833823399 1.0236482078808469 -0.5578879512946863 0.4821174903544280
O 1.7434735369029954 1.0026099529522576 -0.4952126376703607 -0.6035297564939646
N 1.3989830723628933 1.7061761492451526 1.3072101771961389 0.0604057803354635
N 1.2523369301720408 -1.4684323315483137 -0.2597088049417460 0.6991174418445399
O 0.8909632278968218 -1.5561793608464647 -0.0960891974975797 -0.4131324281244263
O 1.3275435666495843 -1.2336644139610475 -0.2784936680985465 -0.9286014603942530
O 0.0516343413207579 -0.2651158406237769 0.3407379479819170 -0.1057946580878595
N 0.7812656201559205 -0.0780462595387119 0.1241999511804322 0.9961038253671308
O 0.9047615989539561 0.0674381267144132 0.4081454876133226 -0.3737552305035935
N -0.4376506632776838 -0.1478566374148914 0.4095377322780855 0.9714181100989372
O -0.7135724662641267 -0.2497618301162910 0.7970012566478091 -0.9973398242463560
N -0.9201062785858006 -0.3368893025815091 0.6395574611734227 0.7637225416907655
O -0.9000736490283878 -0.2657806910445947 0.3952597859779162 -0.9974375214017446
O -2.1390432088206834 0.0164775292407614 -0.0734549253416610 -0.4871145088925188
N -1.4183194526233243 -0.1851732795628341 -0.1691312088567115 0.4662300369825688
N -2.3598362423987376 0.0777248906802369 -0.0035136388453548 0.6223673236702755
N -1.9284837363795357 1.1242270271959103 -0.4392056843724271 0.9509229066582735
O -1.9347624512823740 1.0617093306766989 -0.3821502368642126 -0.9922381659518612
O -1.8576794730059600 -0.3380763008094007 -0.7589597328656570 -0.6086911331096487
N -1.9494641803895520 -0.5550262560999176 -1.0196097278950402 0.3897866237988844
