21
s                      x[A]                      y[A]                      z[A]                      q[e]
N 1.7572209379768906 0.6703784006258112 -1.6595235232845011 0.0707249461841811
O 1.6306621166742221 -0.1441731169440201 -0.3370359636742446 -0.3496602100029151
N 1.4968375374315468 0.3809874417948894 -0.2903647273929700 0.9824851761690530
N 3.1434945787049160 -0.0898411165556141 0.1097392895566639 0.1071394941056757
O 1.5812379308239528 0.4719413475488091 -0.1800313863553170 -0.8194842575378962
N 0.6897214981795092 -0.0038543594500006 0.2774240087701861 0.3116552922920345
N 1.0770485441185169 -0.6881013677664386 1.6844728460312441 0.0918298459672651
N 1.4642067219848283 -0.1224387301936324 0.5909929092327364 0.5593901217632046
O 1.1239158549013406 -0.0842509079095537 0.4842805409187109 -0.9963138680841535
N -1.0708475408230387 -0.6805299114954829 -0.2327558362944316 0.9989733053171830
O -1.0952710097251959 -0.7630495993223418 -0.2634934443345234 -0.8354521971080898
N -1.3113655256319658 -1.5228334897039484 -0.2654368639906125 0.2899344186932475
O -1.1496711101558774 -1.1719245521951400 -0.1933396344160359 -0.8678253524624289
N -0.3104151839708080 0.3451338643809661 0.0474450276659175 0.9219570073558310
O -0.4432115100053527 0.2809717827810734 -0.1626270803938015 -0.9704818863270434
O -0.7369393463996341 0.3321857907035944 0.4392678122034981 -0.3320651923316272
N -0.7350082482005321 -0.2673786765839167 -0.0399310435246450 0.9769593393400061
O -0.9864808009057706 1.0177180005833724 -0.4717473005224622 -0.1970026432733326
O -1.2514916508339724 0.8801484631960848 0.4875160381409970 -0.1946060569702309
N -2.4471390236585497 1.0978835101254165 -0.3009399619463005 0.1283355164991325
N -0.6706952068154908 2.2223122324371247 0.2817073810169257 0.1235072004109040
