25
s                      x[A]                      y[A]                      z[A]                      q[e]
N -1.7589536983636436 0.8340109921691907 -1.4030813665631141 0.1158659338886357
O -1.8765950487831293 0.3215997118040554 0.2282199976294223 -0.2341991647481463
N -3.3781871831063093 -0.1717035525992869 0.0442391641254922 0.0569852111266852
N -2.1685334743199030 -0.1933354847433043 0.0819302997633939 0.3189271149812888
O -1.8664593433653147 -0.3428678928672705 -0.1863575902128213 -0.2877498234141676
N -1.4164170405744074 -0.3306069679692087 0.6978815386880126 0.5692545008206258
O -0.9801821629356677 -0.3655808957403909 -0.0687025539875581 -0.2058946535748549
O -1.1168612517848346 -0.3804694432955434 0.6558670070053934 -0.9992971180892700
N -0.6584696085906503 -0.3760689081068634 0.3444760010529475 0.6691943173322236
N -1.0714776926658449 -1.0978260463007845 1.6262798337250222 0.0628076875181509
N 1.4110553222289719 -1.3345781113506865 -0.2658328477821688 0.7576134719858190
O 1.1894691448789494 -1.0493759937983667 -0.2732208159152663 -0.9235083265987739
N 1.0455592751605558 -0.6648891243909931 -0.1409774678487961 0.9955526175656415
O 1.3301813788680232 -1.1655268419357778 -0.1870777197664192 -0.9936641819349231
O 0.4062109395677420 0.1335065649260039 0.2089886842806890 -0.9934394819660318
N 0.5907029084875124 -0.2003954521258624 -0.0318848091948281 0.8475065253219278
N 0.2044667582106715 0.3496203574343378 0.1827246544389113 0.9207393412409772
O 0.4136144140796267 0.3484539858898281 -0.1676253003712733 -0.6738758902636315
N 2.3755456189808624 1.3536729152690565 -0.2705178959975937 0.1207489421105395
N 0.6322849675092782 0.9418100262504945 0.0687281217220834 0.4308753055723465
O 1.0576118107140675 0.8415353085294575 0.2432380962292607 -0.7095764258838037
N 1.2308448673046641 0.7781560421640104 -0.0173513961935259 0.9977500474782615
O 1.0617438310848202 0.9302843551697175 -0.0975922353289676 -0.9963537733476465
O 0.6450083533875824 2.2250571490059161 0.6851500960799648 -0.1586318904925156
N 0.6235555842889594 2.2034925178681126 0.5147033261919498 0.3123697133706422
