21
s                      x[A]                      y[A]                      z[A]                      q[e]
N       -1.7847930936196950        0.3624221894509414       -1.7869114425455319        0.0690680479201058
O       -1.8762562399132461        0.3947389349035932        0.1468730813388101       -0.3117950550350966
N       -1.9920614825188419        0.0281525489308387        0.1421194088600709        0.5776243102962968
N       -3.3506175467898931        0.0103151841896739        0.1209271376906083        0.0604184539076988
O       -1.8305677728706333       -0.2675649658544267        0.0398896013473959       -0.3968494342195521
O       -0.8131047978679522        0.3822875685504788        0.5555529952051402       -0.9828651838991298
N       -0.6187793842917719        0.4648560434368800        0.4940074855191837        0.7759263489545838
N       -1.1837804252808461       -0.1613867862117604        1.2909073587370348        0.9970342621901004
O       -1.1724699208198961       -0.4360704804854768        1.2429980367874658       -0.3970377457969525
O       -1.2441674440705124        0.0998206160537796        1.3538400800036687       -0.3893757401670396
N        1.1907628479000822       -1.6269196387705169       -0.2931656058817680        0.1691966627363242
O        1.0275280994583804       -1.2201596921183762       -0.1844675408589473       -0.6800109224217911
O        0.4343528699107798        0.4384709014884248       -0.2592294906408843       -0.9821368279659007
N        0.3586863171489493        0.5668762426942805       -0.1060335382064462        0.8921713087406896
O        0.8225265444396713        0.4228077694523147        0.3238944489669525       -0.3335771210350215
N        0.6905892641088668       -0.2016917248622275       -0.0793962340504136        0.9988617281482304
N        2.7006694250942216        0.9873455652175751       -0.4106821609683964        0.0655379221577991
N        1.4087773106393766        0.8264233730638445       -0.0765769445247260        0.9908754307264420
O        1.1942373181819796        0.8761352073618787       -0.3815335933845169       -0.6595771554465193
O        1.4470846057467819        0.8515607238182527        0.2942014341142183       -0.5578053818499882
N        0.6601806738175654        2.3306949004639472        0.1920142398733727        0.0943160920587207

        RMSE         9.156901914E-01 kcal/mol

Coordinates in bohr
s                   x[bohr]                   y[bohr]                   z[bohr]                      q[e]
+       -3.3727701375498369        0.6848786798510704       -3.3767732368578267        0.0690680479201058
-       -3.5456104346173318        0.7459484780227171        0.2775498989324420       -0.3117950550350966
+       -3.7644506270341083        0.0532006072128358        0.2685667598574987        0.5776243102962968
+       -6.3317495145862779        0.0194928730521364        0.2285191713707785        0.0604184539076988
-       -3.4592717448147874       -0.5056245062323419        0.0753804218002718       -0.3968494342195521
-       -1.5365453792661758        0.7224188057275902        1.0498430091155011       -0.9828651838991298
+       -1.1693235683908707        0.8784506098596312        0.9335388515573312        0.7759263489545838
+       -2.2370207964587934       -0.3049768262080408        2.4394613613511353        0.9970342621901004
-       -2.2156470406868287       -0.8240537795143534        2.3489258640100648       -0.3970377457969525
-       -2.3511357235041386        0.1886336260161224        2.5583869688748488       -0.3893757401670396
+        2.2502156629013514       -3.0744325454050583       -0.5540027045204501        0.1691966627363242
-        1.9417466941885313       -2.3057676474266753       -0.3485931312601121       -0.6800109224217911
-        0.8208079659379859        0.8285899177957221       -0.4898727409532046       -0.9821368279659007
+        0.6778189043606218        1.0712408457207541       -0.2003743473234521        0.8921713087406896
-        1.5543498999101961        0.7989908879805894        0.6120718021036174       -0.3335771210350215
+        1.3050245743472215       -0.3811421217608035       -0.1500371377480310        0.9988617281482304
+        5.1035255688257237        1.8658127094465775       -0.7760768088414558        0.0655379221577991
+        2.6622032888674485        1.5617138387677281       -0.1447094526761095        0.9908754307264420
-        2.2567814601651799        1.6556555907851538       -0.7209939991585256       -0.6595771554465193
-        2.7345935852275352        1.6092165472131303        0.5559601361927984       -0.5578053818499882
+        1.2475606668354062        4.4043750438780531        0.3628543255486385        0.0943160920587207
