25
s                      x[A]                      y[A]                      z[A]                      q[e]
N 1.9745943101121277 1.3552739387273642 -0.4970171677426194 0.1158659338886357
O 1.8270386927403124 -0.3152662774525903 -0.4568786727815509 -0.2341991647481463
N 3.3467601302178673 -0.5320715902919928 0.0381231573821401 0.0569852111266852
N 2.1400597865182891 -0.4101540668926619 0.0811625129155096 0.3189271149812888
O 1.9261893245781694 -0.1344103560899989 0.3049983902128049 -0.2877498234141676
N 1.3791887836102417 -0.7716823888419211 0.0346872161807146 0.5692545008206258
O 0.7160413727679654 -0.6862693774047920 0.6177230185252530 -0.2058946535748549
O 1.0899513086233941 -0.6939991997522649 0.0097682950383373 -0.9992971180892700
N 0.5631229267017637 -0.6319136079546032 0.1062795897268689 0.6691943173322236
N 0.8475097072915410 -1.9772355091643714 0.5577538558688955 0.0628076875181509
N -1.7022490237271402 -1.0820570752789413 -0.1297367965273355 0.7576134719858190
O -1.4511455141198648 -0.8644821686614191 -0.0227262712897986 -0.9235083265987739
N -1.1885956338521591 -0.5148932809121367 -0.0452084748493948 0.9955526175656415
O -1.5677381265588215 -0.9399966581765846 -0.1590331486910793 -0.9936641819349231
O -0.3358833397555537 0.1180543446214671 -0.0637224600988779 -0.9934394819660318
N -0.6528227457253050 -0.1710710371969655 0.0589969599745762 0.8475065253219278
N -0.1264233113332417 0.2734704551776809 0.0516904282263172 0.9207393412409772
O -0.4312916840037496 0.3155617382491339 0.2951491269182480 -0.6738758902636315
N -2.0869045411689933 1.7203780558527741 -0.0353370814600160 0.1207489421105395
N -0.4556550898295348 0.9449864093594820 0.1560412401108678 0.4308753055723465
O -0.7847617620660486 0.9695902812405777 -0.1687194879346223 -0.7095764258838037
N -1.0476668201365475 0.9196741709364777 0.0038354008360423 0.9977500474782615
O -0.8955090611107841 1.0108060712786973 0.1510852906832142 -0.9963537733476465
O -0.0030294945079717 2.2623478409696274 -0.1492224552074889 -0.1586318904925156
N -0.0727343339235866 2.2185347774625379 0.0037674291498548 0.3123697133706422
