25
s                      x[A]                      y[A]                      z[A]                      q[e]
N 0.0795039283546872 -0.0037114273489531 0.2387428664110675 0.1158659338886357
O -0.1708588116778836 0.4586909572066464 0.2924844749980899 -0.2341991647481463
N -0.0776610445613452 -0.0004968513397377 -0.3908012119777488 0.0569852111266852
N -0.5190292776244430 -0.0495548256262344 0.1623393017636170 0.3189271149812888
O -0.2254577361796843 -0.3277511773357854 0.2534447815790317 -0.2877498234141676
N 0.0054580883845981 0.1367995621395660 -0.5538903338564798 0.5692545008206258
O -0.1463725823359111 -0.5014780777368568 0.0432191365988608 -0.2058946535748549
O -0.0445476484822190 0.1377728128100011 -0.2575587180974696 -0.9992971180892700
N -0.1973675843471686 -0.0047010070512331 0.2394970861799445 0.6691943173322236
N 0.0169459437880032 -0.0321403118829640 0.4008829665918560 0.0628076875181509
N 0.0548971727120654 0.0027116778117839 0.2737861638268976 0.7576134719858190
O 0.0312502705372964 -0.0720801178661686 -0.0663462756068211 -0.9235083265987739
N 0.0988574855168906 -0.0118782773173877 -0.4946630770756687 0.9955526175656415
O 0.0637053136997803 0.0498134236910929 0.0818578907614494 -0.9936641819349231
O -0.0429387996457675 0.1100284008272753 -0.1265504475100771 -0.9934394819660318
N -0.0330820968405695 -0.0526135341658268 0.2888464421301652 0.8475065253219278
N -0.0822881479733862 0.0206169886514852 -0.3945150606170761 0.9207393412409772
O 0.1515162737290111 -0.2482532836482127 -0.2300984927170402 -0.6738758902636315
N -0.0684160030281889 0.0240728769125293 0.2169516320037194 0.1207489421105395
N 0.2676171741112702 0.0770229915882198 -0.4851589619194949 0.4308753055723465
O 0.3535069993214670 -0.2086300607998939 -0.1310243063300063 -0.7095764258838037
N 0.4495206334799021 -0.0040723044606075 0.0933044337875436 0.9977500474782615
O 0.3110740167029589 0.1183902983221292 -0.0444452746492682 -0.9963537733476465
O -0.0248321421723886 -0.3641370821530344 -0.1401698008011525 -0.1586318904925156
N -0.0398539234252573 -0.2015990638136675 -0.0806719641193964 0.3123697133706422
