25
s                      x[A]                      y[A]                      z[A]                      q[e]
N       -1.7979414757919010        1.0077306051339205       -1.2394689524872429        0.1158659338886357
O       -1.8793802346796384        0.2237277305755328        0.2735303188823919       -0.2341991647481463
N       -3.3733671109102290       -0.2586620765204307        0.0436001469650662        0.0569852111266852
N       -2.1632439789798035       -0.2566638143313579        0.0685217361640980        0.3189271149812888
O       -1.8632989707797449       -0.3640503563374056       -0.2476612180371991       -0.2877498234141676
N       -1.4043754878430634       -0.4790373760164042        0.6232895849100800        0.5692545008206258
O       -0.9446845323652729       -0.4538714987970478       -0.1264817465615610       -0.2058946535748549
O       -1.1021055569468126       -0.4863729285660222        0.5940767099705585       -0.9992971180892700
N       -0.6360902591935377       -0.4642275974420632        0.2943096995911463        0.6691943173322236
N       -1.0229311046389584       -1.3860945899263413        1.4170799247155019        0.0628076875181509
N        1.5035034037698771       -1.2642465293641267       -0.2668329325767648        0.7576134719858190
O        1.2667708516279959       -0.9932952376552153       -0.2793776258067733       -0.9235083265987739
N        1.0918859550239894       -0.6240804900653497       -0.1406723272779192        0.9955526175656415
O        1.4120003048762189       -1.1018320476299783       -0.1914472086156928       -0.9936641819349231
O        0.3918445671102115        0.1271314626013827        0.2026215507080913       -0.9934394819660318
N        0.6065924577334391       -0.1954930691598474       -0.0378834388598033        0.8475065253219278
N        0.1812456205642914        0.3214453092444322        0.1734448619880132        0.9207393412409772
O        0.3964830036212288        0.3487241327258250       -0.1684180144822341       -0.6738758902636315
N        2.2880662859452547        1.4819790116776923       -0.2113633738267538        0.1207489421105395
N        0.5714570344306987        0.9463857632137982        0.0788878220731065        0.4308753055723465
O        0.9929419181403792        0.8738630256691420        0.2620857098684075       -0.7095764258838037
N        1.1799386365915820        0.8252744832860959        0.0034468254777998        0.9977500474782615
O        0.9984152447427083        0.9699063689410360       -0.0757216359449319       -0.9963537733476465
O        0.4810269649931622        2.2157394551073537        0.7256180518631155       -0.1586318904925156
N        0.4725526400918901        2.1951829399317102        0.5512593542502903        0.3123697133706422

        RMSE         8.462008064E-01 kcal/mol

Coordinates in bohr
s                   x[bohr]                   y[bohr]                   z[bohr]                      q[e]
+       -3.3976169788481587        1.9043348519449963       -2.3422568612089902        0.1158659338886357
-       -3.5515139291431770        0.4227841374579744        0.5168973896968666       -0.2341991647481463
+       -6.3747399602472550       -0.4888004836658298        0.0823923367936863        0.0569852111266852
+       -4.0879386628174794       -0.4850243154016244        0.1294873149910245        0.3189271149812888
-       -3.5211247446211664       -0.6879554693530271       -0.4680118739876027       -0.2877498234141676
+       -2.6538850493296193       -0.9052494445289642        1.1778466123303435        0.5692545008206258
-       -1.7851950411265676       -0.8576928288774824       -0.2390158608709176       -0.2058946535748549
-       -2.0826776639746418       -0.9191116298266462        1.1226422793573974       -0.9992971180892700
+       -1.2020363809472696       -0.8772630190447864        0.5561647282930343        0.6691943173322236
+       -1.9330596329796752       -2.6193391589395620        2.6778929555966964        0.0628076875181509
+        2.8412096618187066       -2.3890796955587774       -0.5042411638228396        0.7576134719858190
-        2.3938499732898859       -1.8770559608899027       -0.5279471983554407       -0.9235083265987739
+        2.0633654152293039       -1.1793412064650159       -0.2658321719860379        0.9955526175656415
-        2.6682938652790091       -2.0821608062730643       -0.3617827917670496       -0.9936641819349231
-        0.7404789155868799        0.2402436462454977        0.3828992379538583       -0.9934394819660318
+        1.1462936148845533       -0.3694283601372977       -0.0715893241355546        0.8475065253219278
+        0.3425045843051580        0.6074435987850743        0.3277632870251759        0.9207393412409772
-        0.7492442902430267        0.6589931041896147       -0.3182639219648127       -0.6738758902636315
+        4.3238186373300094        2.8005344557475071       -0.3994188894853259        0.1207489421105395
+        1.0798972875403450        1.7884099015064605        0.1490763783520181        0.4308753055723465
-        1.8763882837720829        1.6513617896786024        0.4952702130474902       -0.7095764258838037
+        2.2297608680042025        1.5595427517394451        0.0065135561552919        0.9977500474782615
-        1.8867313720456673        1.8328574046358148       -0.1430931537075443       -0.9963537733476465
-        0.9090092227972668        4.1871407355240589        1.3712193897095426       -0.1586318904925156
+        0.8929950696357150        4.1482945517482754        1.0417292036297854        0.3123697133706422
