25
s                      x[A]                      y[A]                      z[A]                      q[e]
N -1.7980488486267752 1.0077710444184371 -1.2395392634772233 0.1158659338886357
O -1.8792793924687592 0.2235554099932771 0.2738087498185061 -0.2341991647481463
N -3.3733952984606121 -0.2586016161503379 0.0435231921774319 0.0569852111266852
N -2.1633316816935357 -0.2565000674786209 0.0681370700081235 0.3189271149812888
O -1.8632657552878147 -0.3641300801546626 -0.2472964646443425 -0.2877498234141676
N -1.4044008342057099 -0.4788234181724605 0.6226673848185513 0.5692545008206258
O -0.9446891980819339 -0.4538458676737973 -0.1261677057048058 -0.2058946535748549
O -1.1021646880500962 -0.4865852655295733 0.5948122464759447 -0.9992971180892700
N -0.6360468632886749 -0.4642461716247478 0.2937114385496852 0.6691943173322236
N -1.0228773085809906 -1.3860362747533039 1.4168616039882278 0.0628076875181509
N 1.5036105875070951 -1.2645798038271083 -0.2670645556130488 0.7576134719858190
O 1.2667956454209106 -0.9930732142778482 -0.2791524826649155 -0.9235083265987739
N 1.0920385866605129 -0.6243926852913297 -0.1409673213626214 0.9955526175656415
O 1.4120298438826078 -1.1016418068746985 -0.1912174479985280 -0.9936641819349231
O 0.3918198152958581 0.1272318082883355 0.2029783387423177 -0.9934394819660318
N 0.6066927868938078 -0.1957100782664761 -0.0382198840544629 0.8475065253219278
N 0.1812616040938015 0.3213823974436256 0.1731273465148882 0.9207393412409772
O 0.3965145912937486 0.3488762507463319 -0.1682253509213498 -0.6738758902636315
N 2.2881016739264832 1.4819043004321595 -0.2113779876038864 0.1207489421105395
N 0.5714362702792808 0.9463137164611102 0.0787334002977627 0.4308753055723465
O 0.9929241409020576 0.8740005789674503 0.2622727043897166 -0.7095764258838037
N 1.1800342287911085 0.8251353605240369 0.0033018704710063 0.9977500474782615
O 0.9984391495038399 0.9700957033994855 -0.0756252317645975 -0.9963537733476465
O 0.4810853989985843 2.2157798861751647 0.7257049077415652 -0.1586318904925156
N 0.4724359660700211 2.1951700679545425 0.5511910405455193 0.3123697133706422
