21
s                      x[A]                      y[A]                      z[A]                      q[e]
N -1.6995267724977898 0.1547961923381876 -1.7756596983393247 0.0707249461841811
O -1.6311742608563375 0.1974761433261845 -0.1924706828304579 -0.3496602100029151
N -1.4529315650940196 -0.2464534658665328 -0.4582679508713806 0.9824851761690530
N -3.1282455749254012 -0.1537772595841404 0.0887491682420799 0.1071394941056757
O -1.5211654091191238 -0.4044563570302537 -0.3799700716657585 -0.8194842575378962
N -0.6639417225009815 -0.2505323039182916 0.2925066880068999 0.3116552922920345
N -1.1074887343229065 -0.3515001814393934 1.8033405454596432 0.0918298459672651
N -1.4445233677466209 -0.3090347197054923 0.6118807849115038 0.5593901217632046
O -1.1169806365398085 -0.2370755459054461 0.4964099904701047 -0.9963138680841535
N 0.9635554208761810 0.7736216017766764 -0.1359101563885394 0.9989733053171830
O 0.9643843691975461 0.8742411241763013 -0.1517843586944121 -0.8354521971080898
N 1.0629930435037103 1.6459956687580457 -0.0783962019166090 0.2899344186932475
O 0.9514210085501497 1.2771415226415392 -0.0386530352219388 -0.8678253524624289
N 0.3779115309449608 -0.3882522693612475 0.0346458589789089 0.9219570073558310
O 0.4920178816617374 -0.2591563515573840 -0.1682510681981331 -0.9704818863270434
O 0.7974974581670533 -0.3260286366015925 0.4298056529038943 -0.3320651923316272
N 0.7002822607415613 0.2947789251192231 0.0126288375594559 0.9769593393400061
O 1.1162943871799569 -0.8495476757852837 -0.5989292760875085 -0.1970026432733326
O 1.3889614201359908 -0.8084819693907828 0.3672549818958257 -0.1946060569702309
N 2.5725398049775730 -0.7392184643849995 -0.4565058558117511 0.1283355164991325
N 0.9986572445251859 -2.1867427915456275 -0.0216345746974849 0.1235072004109040
