21
s                      x[A]                      y[A]                      z[A]                      q[e]
N        2.0843148058934591        1.5160798453830528       -0.5407079375645982        0.0690680479201058
O        1.8407587703708144       -0.3766048868593566       -0.3290883166234885       -0.3117950550350966
N        1.9776512101664203       -0.3648255079513539        0.0279170540199068        0.5776243102962968
N        3.3180478309059733       -0.5530153193782930        0.0789139155403529        0.0604184539076988
O        1.8538880657409726       -0.2159367426338859        0.3237896070553474       -0.3968494342195521
O        0.9252325098647018       -0.1577973239230747        0.0782479494785367       -0.9828651838991298
N        0.7666028472701366       -0.0022494113648554        0.0728531803229391        0.7759263489545838
N        1.0056517179176054       -1.3441590424296799        0.3489806264840563        0.9970342621901004
O        1.0201870032827633       -1.2759152100615490        0.6208472341966661       -0.3970377457969525
O        1.0399055342161856       -1.4353759462353304        0.0927450420445529       -0.3893757401670396
N       -1.8055599151343404       -1.2444551630895511       -0.0451000166093145        0.1691966627363242
O       -1.4807515800506350       -0.9326087566094131       -0.0469642459633924       -0.6800109224217911
O       -0.4112133442546486        0.3943170282366172        0.3954521323224694       -0.9821368279659007
N       -0.2432591186850841        0.4828138237654491        0.2908179292453084        0.8921713087406896
O       -0.5351902434332980        0.4962142785772194       -0.2867929571634858       -0.3335771210350215
N       -0.7917657193222447       -0.1116754204987458        0.0728367737072095        0.9988617281482304
N       -2.2569850206728566        1.7166740527291700       -0.0880453693591725        0.0655379221577991
N       -1.0655994229735117        1.1037095371293455       -0.0000546261878948        0.9908754307264420
O       -0.9760993057723359        1.0559886172850157        0.3637877931621402       -0.6595771554465193
O       -0.9545898231309553        1.1525370038821068       -0.3513078716697646       -0.5578053818499882
N        0.1772850327445244        2.2364505529312111        0.2526215676458782        0.0943160920587207

        RMSE         4.463920979E-01 kcal/mol

Coordinates in bohr
s                   x[bohr]                   y[bohr]                   z[bohr]                      q[e]
+        3.9387841423754320        2.8649756921004195       -1.0217899158582415        0.0690680479201058
-        3.4785299390353552       -0.7116800936732156       -0.6218867895063439       -0.3117950550350966
+        3.7372191588947743       -0.6894202936090962        0.0527555863272354        0.5776243102962968
+        6.2702016715816962       -1.0450474968075649        0.1491256878587774        0.0604184539076988
-        3.5033407115051958       -0.4080613040015174        0.6118736796042142       -0.3968494342195521
-        1.7484360460142447       -0.2981937255447659        0.1478671943930950       -0.9828651838991298
+        1.4486694283367345       -0.0042507714230689        0.1376725581789482        0.7759263489545838
+        1.9004063244604454       -2.5400924592497436        0.6594778071455611        0.9970342621901004
-        1.9278740329559689       -2.4111303063223217        1.1732312383796746       -0.3970377457969525
-        1.9651366560165053       -2.7124674254546548        0.1752627289582764       -0.3893757401670396
+       -3.4120137427087820       -2.3516794336512068       -0.0852266796452036        0.1691966627363242
-       -2.7982149461346437       -1.7623751321955490       -0.0887495625594499       -0.6800109224217911
-       -0.7770805997748932        0.7451511899716277        0.7472962258177764       -0.9821368279659007
+       -0.4596931118350500        0.9123858965017607        0.5495662386464055        0.8921713087406896
-       -1.0113629851060382        0.9377090860525802       -0.5419601437491469       -0.3335771210350215
+       -1.4962203650451558       -0.2110359596879686        0.1376415541685737        0.9988617281482304
+       -4.2650835583324733        3.2440438063378818       -0.1663816347036125        0.0655379221577991
+       -2.0136910688658318        2.0857087472302909       -0.0001032285343990        0.9908754307264420
-       -1.8445603591592323        1.9955292782695822        0.6874592968611449       -0.6595771554465193
-       -1.8039133278667336        2.1779792867929073       -0.6638756631733401       -0.5578053818499882
+        0.3350201580299743        4.2262790381687152        0.4773855762345280        0.0943160920587207
