21
s                      x[A]                      y[A]                      z[A]                      q[e]
N 1.7451765910096759 0.9836534594602729 -1.3540508193967813 0.0707249461841811
O 1.5672233363491843 -0.2386186820383527 -0.4033950396965348 -0.3496602100029151
N 1.4749024287401697 0.2232898237973180 -0.1900285147922627 0.9824851761690530
N 3.0788297757057115 -0.4759865955994913 -0.0547507302785840 0.1071394941056757
O 1.5697307327755847 0.2811948818195852 -0.0342271777057532 -0.8194842575378962
N 0.5547178490995512 -0.4793026492228361 0.4480167572472336 0.3116552922920345
N 1.0121779596967890 -1.4376679788899194 1.2962739976229571 0.0918298459672651
N 1.3682933640498554 -0.6926489501799412 0.5151286047087777 0.5593901217632046
O 1.0268495991862290 -0.5920630792485626 0.4677334842043797 -0.9963138680841535
N -0.8679353724112273 0.8347890274571439 0.1584789430154893 0.9989733053171830
O -0.8718768725473490 0.9282607244310221 0.1699728783484270 -0.8354521971080898
N -0.7805618805142532 1.7062330836871129 0.1215016005491390 0.2899344186932475
O -0.7409182121401209 1.3199324633345908 0.1038543416834406 -0.8678253524624289
N -0.4844559646033235 -0.4047496999445446 0.1947161907170694 0.9219570073558310
O -0.6628663148659552 -0.2736730056710349 0.3219695346331296 -0.9704818863270434
O -0.6649821913108694 -0.2916650172496725 -0.3499662596549498 -0.3320651923316272
N -0.6544852163982098 0.3201148857283245 0.1150390682572304 0.9769593393400061
O -1.5093581859128169 -0.7332979959450495 0.3095356407025489 -0.1970026432733326
O -1.2563132922508387 -0.6326537825745532 -0.6569882799658457 -0.1946060569702309
N -2.6635741819849263 -0.3331393739166858 -0.5033864979116706 0.1283355164991325
N -1.3551906401617027 -2.0559491121057092 -0.2687822532073778 0.1235072004109040
