21
s                      x[A]                      y[A]                      z[A]                      q[e]
N -2.1250007733711813 1.5588602904388291 -0.2770548353671310 0.0690680479201058
O -1.8688188730689319 -0.2377906269200512 0.3592926839637697 -0.3117950550350966
N -1.9729560533386699 -0.3927694938942231 0.0217637935790397 0.5776243102962968
N -3.3123820970808953 -0.6014892048626141 0.0230694225846060 0.0604184539076988
O -1.8383655859426908 -0.3433896489302448 -0.3038509766508782 -0.3968494342195521
O -0.9298133266487913 -0.1429869134640966 0.1503726577335082 -0.9828651838991298
N -0.7491646039805294 -0.0451941122045538 0.1409291417051086 0.7759263489545838
N -0.9697830553347097 -1.4054687464352618 0.1738098919482973 0.9970342621901004
O -0.9979323765850910 -1.4134433303305967 -0.1099779485066975 -0.3970377457969525
O -1.0534104717097201 -1.3542115180871983 0.4369493778575138 -0.3893757401670396
N 1.8151881559583958 -1.2364510243038886 -0.1754774873225879 0.1691966627363242
O 1.4646667042307586 -0.8855772193200613 -0.1067421832621094 -0.6800109224217911
O 0.3452058409034809 0.4611897810398832 -0.3090061200899585 -0.9821368279659007
N 0.2207970070835900 0.4568242849803993 -0.1836545644025447 0.8921713087406896
O 0.5713275798861887 0.4942850401371285 0.3509878726000459 -0.3335771210350215
N 0.8048489319157761 -0.1487585861660176 -0.0813253222366529 0.9988617281482304
N 2.2495516073108082 1.7183725527845284 -0.0259782937629303 0.0655379221577991
N 1.0690343502768949 1.0506644420063753 0.0287131198844749 0.9908754307264420
O 0.9058210331508102 1.1315273559034003 -0.3088512558438685 -0.6595771554465193
O 1.0108052658635640 1.1488005812944224 0.3987362498951333 -0.5578053818499882
N -0.1973584474141172 2.2366132666316565 0.1180971405756639 0.0943160920587207
