13
s                      x[A]                      y[A]                      z[A]                      q[e]
C 1.5957917490381661 1.1268910207980922 0.7904915307032349
C 1.5225273296080728 0.1430667620269461 -0.3400618471346141
H 1.0549469596043550 2.0456080883291734 0.5397879881338513
H 2.6426217700775543 1.3595118566352924 0.9873315524432186
H 1.1352470774041108 0.7192169291623474 1.6961689348731248
C 0.1737839165674872 -0.3561765988698955 -0.8637447658691538
O 2.5330996770852221 -0.2704833947901675 -0.9169542879742293
C -1.0183947264514801 -0.2224164083373897 0.0348800694830411
H 0.2871452241451391 -1.4109248960679506 -1.1273881865912549
H -0.0487844319783129 0.1853029254258706 -1.7905679080535946
F -0.8358704858065257 -0.8483661778406935 1.2665293236657946
F -2.1446514551228386 -0.7979555048537995 -0.5419269207174204
F -1.3503921415234827 1.1037615592243890 0.3088333978733758
