30
s                      x[A]                      y[A]                      z[A]                      q[e]
N 1.5700382797781665 1.1646344510668765 1.3617238158280547 0.2137068255539760
N 1.4009279009274349 0.9941069443818666 0.5507920025143153 0.4524136045707061
O 1.3115593481264591 1.5381934877201433 0.4424406668541827 -0.5303393512711568
N 1.0203945059422419 2.1162596769858051 0.4642675836900827 0.2065219334641430
N 3.0334653910663163 1.4179811113382292 1.0037268894290801 0.0640972179527254
N 1.1622661269723809 0.6543610723774019 1.7900951302755177 0.2729192555687945
O 1.4153985875566433 0.8629910746447008 1.3981638983886375 -0.5760168259183410
O 2.7847614035592048 -0.1701530791570998 -0.7853498341266363 -0.7855321009151053
O 2.4528248617529695 -0.4560495820363379 -1.1318596909867444 -0.7445427033607991
N 2.6300031673796469 -0.3500975178415855 -0.9734909289489759 0.9977538426035523
N 1.7444407388804017 0.3463056102636953 -0.0809862667459891 0.2084365764815679
N 1.4075624367010953 -0.1149563440509572 -0.6261372667554005 0.3300899125146088
N -0.0276973618610312 0.0145771035677534 -0.9936523367441552 0.6266498413516267
O 0.0122161424155151 0.0465825188407436 -0.5047452351927648 -0.5811225412727979
N 0.2718663840278246 -1.5104343238381996 -1.1546636415134302 0.5003074335780895
O 0.2701400567052914 -1.2769899686940658 -1.1377930981479702 -0.5967490130385100
N -0.0594550814084483 0.1080444340199633 -1.6001629098597627 0.9708061175491041
O -0.1671038318083105 0.4443200088503653 -1.5305354430622780 -0.1568654630532827
O -0.0137136030743276 0.0047090466645633 -1.6572316548146484 -0.7813807259506527
N -0.7066481757630575 0.2235175801689209 0.1368923325095820 0.1400529194232831
N -0.7021919116664871 -0.4209100114596447 0.3643598889088130 0.1778327620465852
N -0.9111907564738942 -0.6161357325393843 0.8448643333716864 0.7120624373414439
O -0.8753842794052569 -0.6911590054444894 0.9886881118343682 -0.9970019554920370
N -1.7250302395369226 -0.6345628722638846 -0.3071351875794771 0.9931708722557875
N -2.3551884983107993 -0.9383227904129263 -0.6498727895954980 0.8506195801821621
O -2.0874736823212428 -0.8258221196911326 -0.6172489641221266 -0.8089940633040810
O -2.2452828063693255 -0.8296216634406098 -0.5242047552244183 -0.9883399134133223
N -1.4864833239438837 1.5094424880011545 0.4568429793880050 0.2529889584625400
N -1.3402998997288618 0.6877743199851275 0.3311160975686319 0.5419198115726583
O -1.3823652058154958 1.1117770168050822 0.3445489667939031 -0.9654652454832693
