25
s                      x[A]                      y[A]                      z[A]                      q[e]
N 1.9105212673452345 1.2912704622248565 0.1710805577485747 0.1158659338886357
O 1.8103444071969561 -0.2821510957630782 -0.4358574853244065 -0.2341991647481463
N 3.2828124672138013 -0.6773877975596552 0.0331040474705142 0.0569852111266852
N 2.0641192633270120 -0.5655637260577249 0.0465971881568533 0.3189271149812888
O 1.8419819150270198 -0.3804884750150142 0.3617096774491942 -0.2877498234141676
N 1.2959060717820776 -0.9272977705419221 0.0400894570944323 0.5692545008206258
O 0.8053978599635795 -0.5417079033211342 -0.5431228929536045 -0.2058946535748549
O 1.0528719444192760 -0.7654177389915557 0.0889414278602638 -0.9992971180892700
N 0.6587778416876368 -0.4219933882050927 -0.0801916577403812 0.6691943173322236
N 0.7599337887625075 -2.1990187240499308 -0.1657046066365181 0.0628076875181509
N -0.5380449213166296 1.5971111180738344 -0.0223188551851371 0.7576134719858190
O -0.5115854153236196 1.2535823264718553 -0.1045022131430694 -0.9235083265987739
N -0.5972422994614965 0.8276050733095642 -0.0332018386122338 0.9955526175656415
O -0.5350548603280634 1.3979669090098479 0.0135405566762871 -0.9936641819349231
O -0.4737928384865149 -0.2006318368027279 0.0843614343806819 -0.9934394819660318
N -0.4820900258202802 0.2008902878647777 -0.0795348466277775 0.8475065253219278
N -0.4478251253980572 -0.4755104566467707 -0.0115972552505865 0.9207393412409772
O -0.6874951304616066 -0.2970672912428569 -0.2598614383775533 -0.6738758902636315
N -2.8442876014955236 -0.0350362099338457 0.0828959264172989 0.1207489421105395
N -1.1590830239256604 -0.7046860147291835 -0.0582842763593915 0.4308753055723465
O -1.4012229126253699 -0.4365461216037011 0.2328627422007248 -0.7095764258838037
N -1.5403264086297466 -0.2433599179206376 0.0432507519352565 0.9977500474782615
O -1.5146072944323208 -0.4272073449308401 -0.0825690657650145 -0.9963537733476465
O -1.7968673926650143 -1.8797900249625061 0.4313687105935664 -0.1586318904925156
N -1.8132268831471123 -1.8230912900611647 0.2639595163840696 0.3123697133706422
