25
s                      x[A]                      y[A]                      z[A]                      q[e]
N -2.4335780336873700 0.1799253164578339 -0.0038594719757207 0.1158659338886357
O -1.1229558610103707 1.1557110405493665 -0.4392533159507880 -0.2341991647481463
N -1.8965488795493910 2.4938278170366095 -0.0063204238912438 0.0569852111266852
N -1.1802780219317319 1.5278010050622655 0.0317456004067378 0.3189271149812888
O -1.1353835053106920 1.2283298780998115 0.3401342944610527 -0.2877498234141676
N -0.3136806526166894 1.2246617952518386 0.1134117121631618 0.5692545008206258
O -0.3294403271492329 0.5933987474867480 -0.4963147049145547 -0.2058946535748549
O -0.3437110173232387 0.9247783492490171 0.1693404124210885 -0.9992971180892700
N -0.2899257203609510 0.3935555764151298 -0.0199550027015900 0.6691943173322236
N 0.9113091761716428 1.6607783610463520 0.0206353175275734 0.0628076875181509
N -1.0206903865145509 -1.8780310736151451 0.0029837451434712 0.7576134719858190
O -0.7772286705432785 -1.6181687250780101 -0.0736295264221649 -0.9235083265987739
N -0.4040481177871078 -1.4125743373326662 -0.0120795782069605 0.9955526175656415
O -0.8729377929824658 -1.7422839669366592 0.0533227703741425 -0.9936641819349231
O 0.2708776749412519 -0.6397910028618947 0.1183950906016641 -0.9934394819660318
N -0.0469519004975495 -0.9149020045000029 -0.0547249374637203 0.8475065253219278
N 0.4752573766663781 -0.4435850828368270 0.0176747877339612 0.9207393412409772
O 0.4746220494644708 -0.7348872779210389 -0.2548923940539600 -0.6738758902636315
N 2.9204774285658059 0.0869588193259302 0.0228789773090938 0.1207489421105395
N 1.0957871626989992 -0.8485207949187279 -0.0767952526416315 0.4308753055723465
O 1.4859363938351557 -0.3144944698701336 -0.2118105806106259 -0.7095764258838037
N 1.6340356202654593 -0.1041207109221828 -0.0079867785504410 0.9977500474782615
O 1.5861415112395549 -0.3049895710019038 0.1262066799015966 -0.9963537733476465
O 1.8916896344997491 -1.7540993848504964 -0.3706471865559006 -0.1586318904925156
N 1.8850901031728855 -1.7067093436359981 -0.2016871978588918 0.3123697133706422
