21
s                      x[A]                      y[A]                      z[A]                      q[e]
N 0.0999279017960707 -0.2961914351804067 0.2057437699515043 0.0707249461841811
O -0.0187502049873501 0.3035164026395098 0.4644896110599427 -0.3496602100029151
N 0.3028971603321436 -0.1372619023250866 0.4216475037613313 0.9824851761690530
N 0.1898746503325540 0.0452976801438403 -0.2023421939752957 0.1071394941056757
O 0.2003593804043241 -0.2960999781080226 0.4177600517957665 -0.8194842575378962
N -0.2533842661202822 -0.1708644583921015 0.3072198785016714 0.3116552922920345
N 0.1223180243626379 -0.2818698654538510 0.3569709646905804 0.0918298459672651
N -0.2705510320092258 -0.1118065920177342 -0.5359915813421539 0.5593901217632046
O -0.2149697203892083 -0.1211355221937010 -0.1858241844355537 -0.9963138680841535
N 0.3875703877419230 0.1076497407679750 -0.2362382361415341 0.9989733053171830
O 0.2878760792500757 0.1284526013222579 -0.2394065308831714 -0.8354521971080898
N -0.0249488307730481 0.0737908871878317 0.5334949500378993 0.2899344186932475
O -0.1143728794454131 0.0501897804430241 -0.3255541752922744 -0.8678253524624289
N -0.2786916554203395 -0.0817886543381129 0.3567933582457024 0.9219570073558310
O -0.0702460764555937 -0.2435969680226963 0.3212275363710848 -0.9704818863270434
O 0.0037115676454478 0.4228458399478178 0.3987172934547671 -0.3320651923316272
N 0.2999624079581173 -0.0302796710522518 -0.1264682950764767 0.9769593393400061
O 0.3293238272598682 -0.4680044576074099 -0.1937964771150092 -0.1970026432733326
O 0.3399839004614348 0.5339820263711782 -0.2684032339148198 -0.1946060569702309
N 1.6034224034216418 0.0910769598471932 0.2690062989815288 0.1283355164991325
N -0.4894367193165555 0.0905892968182800 0.8801313553421239 0.1235072004109040
