21
s                      x[A]                      y[A]                      z[A]                      q[e]
N       -1.9503520305584614        1.4296872038361048       -0.1982946364532459        0.0707249461841811
O       -1.6313109988643120       -0.0531113410216586        0.2775380025001404       -0.3496602100029151
N       -1.4848316851053971        0.1211897259160925       -0.2201978075510346        0.9824851761690530
N       -3.0459942682751815       -0.6584893582095845        0.0601267963450443        0.1071394941056757
O       -1.5334760260679179       -0.0041751953716147       -0.3531489546562224       -0.8194842575378962
N       -0.4959806362836506       -0.6411653784742074       -0.0804871596095575        0.3116552922920345
N       -0.7423784083865350       -2.0030445626560489        0.2395878328915125        0.0918298459672651
N       -1.2564194889182791       -0.9922854641394550        0.0345586238416077        0.5593901217632046
O       -0.9581426455853910       -0.8026114616895437        0.0054345011600092       -0.9963138680841535
N        0.7213099801437204        0.8867021333130167       -0.0626531433213299        0.9989733053171830
O        0.6927398310741972        0.9838930521419795       -0.0735812778284459       -0.8354521971080898
N        0.5156024949860704        1.7336715262147089        0.0541972286887604        0.2899344186932475
O        0.5252467930874031        1.3472254862181143        0.0500566415777092       -0.8678253524624289
N        0.5234417307796750       -0.4047155419095596       -0.0750745468546181        0.9219570073558310
O        0.6321562785802791       -0.2266340919502089       -0.2404969205828991       -0.9704818863270434
O        0.7996842530995714       -0.2565999328071171        0.4126928206138604       -0.3320651923316272
N        0.6030587195663879        0.3430328632815070       -0.0004489237350681        0.9769593393400061
O        1.4895008730426049       -0.5430826004405915       -0.5575619113179585       -0.1970026432733326
O        1.5366868055025718       -0.5227675128570292        0.4459407067110019       -0.1946060569702309
N        2.7694877327345697       -0.0005116735423670       -0.0913687635949655        0.1283355164991325
N        1.7064275338375354       -1.9039353346755068       -0.0710031132253708        0.1235072004109040

        RMSE         7.393619933E+00 kcal/mol

Coordinates in bohr
s                   x[bohr]                   y[bohr]                   z[bohr]                      q[e]
+       -3.6856311859860491        2.7017172603218387       -0.3747225550438610        0.0707249461841811
-       -3.0827310133005956       -0.1003658886867283        0.5244708141318953       -0.3496602100029151
+       -2.8059252272512398        0.2290153912007136       -0.4161135496977251        0.9824851761690530
+       -5.7560949467544109       -1.2443645435446100        0.1136231778933125        0.1071394941056757
-       -2.8978497092237938       -0.0078899757726309       -0.6673548057919855       -0.8194842575378962
+       -0.9372675661064113       -1.2116269664417660       -0.1520986882780749        0.3116552922920345
+       -1.4028918733038360       -3.7852056405073853        0.4527553871569155        0.0918298459672651
+       -2.3742887327432443       -1.8751477654963749        0.0653063343333558        0.5593901217632046
-       -1.8106271892779939       -1.5167158477466254        0.0102697188209003       -0.9963138680841535
+        1.3630783140310556        1.6756241868207977       -0.1183972817763708        0.9989733053171830
-        1.3090885569261532        1.8592884052891399       -0.1390484630569851       -0.8354521971080898
+        0.9743475051264160        3.2761643760502812        0.1024179189805630        0.2899344186932475
-        0.9925725872102078        2.5458871981889959        0.0945933433420756       -0.8678253524624289
+        0.9891615138092149       -0.7648015329253174       -0.1418703325480797        0.9219570073558310
-        1.1946022350053502       -0.4282763644777214       -0.4544733139176609       -0.9704818863270434
-        1.5111842251994902       -0.4849035968163325        0.7798764049028930       -0.3320651923316272
+        1.1396158175497491        0.6482381636336672       -0.0008483429104963        0.9769593393400061
-        2.8147487136808542       -1.0262773783341608       -1.0536393103777468       -0.1970026432733326
-        2.9039172030045419       -0.9878874265865391        0.8427058038769073       -0.1946060569702309
+        5.2335733226834833       -0.0009669228607165       -0.1726619396161864        0.1283355164991325
+        3.2246806918933628       -3.5979163431185990       -0.1341764380508234        0.1235072004109040
