21
s                      x[A]                      y[A]                      z[A]                      q[e]
N -1.8065920435639884 1.2006507493176104 1.0678448228976616 0.0707249461841811
O -1.5565412788660402 -0.2096590546127703 0.4032060827179503 -0.3496602100029151
N -1.4963525092122743 0.2374752152213437 0.0934636074968164 0.9824851761690530
N -3.0583797997904463 -0.5674685623374167 0.1077520300029342 0.1071394941056757
O -1.5840636619655668 0.2172237302071932 -0.0728131497846668 -0.8194842575378962
N -0.5241846538762820 -0.5566321164937269 -0.3917964045342952 0.3116552922920345
N -0.9282091801693612 -1.6959931476629031 -0.9946662084104890 0.0918298459672651
N -1.3245558991155959 -0.8273880031107320 -0.4205569848008408 0.5593901217632046
O -1.0083140381385920 -0.6689425774430313 -0.3944418497233868 -0.9963138680841535
N 0.8233794017953877 0.8547823715676757 -0.1685842123688532 0.9989733053171830
O 0.8071091057365694 0.9533778488725633 -0.1883623584719556 -0.8354521971080898
N 0.6823890539831665 1.7222023793205077 -0.1245789800856964 0.2899344186932475
O 0.6542896295392558 1.3359708773349614 -0.1137684014774062 -0.8678253524624289
N 0.5103697630300367 -0.4164956191353774 -0.1902838772189002 0.9219570073558310
O 0.6646415923959996 -0.2546333343234375 -0.3346929549977763 -0.9704818863270434
O 0.7005505125999265 -0.2755504350440253 0.3389052488087972 -0.3320651923316272
N 0.6427502397568794 0.3236561419833434 -0.1155173794433208 0.9769593393400061
O 1.5501243207944868 -0.6664907939307727 -0.3296598020266743 -0.1970026432733326
O 1.3124659151633025 -0.5794288198597061 0.6427004287423678 -0.1946060569702309
N 2.6916127567281047 -0.1954359596947036 0.4616788342403250 0.1283355164991325
N 1.4877893209198518 -2.0028200328208579 0.2589175999464108 0.1235072004109040
