25
s                      x[A]                      y[A]                      z[A]                      q[e]
N       -1.8887029269464322        1.2258184927369609       -0.8949311215613674        0.1158659338886357
O       -1.8717579959136739        0.0569929112440252        0.3498499990708512       -0.2341991647481463
N       -3.3602792313215915       -0.4101098393075772        0.0441418386284515        0.0569852111266852
N       -2.1536100193294878       -0.3588078548246711        0.0315933599148968        0.3189271149812888
O       -1.8661445923339004       -0.3660030966827518       -0.3119983608747459       -0.2877498234141676
N       -1.3789440479332216       -0.6704011633802218        0.4598920534610195        0.5692545008206258
O       -0.8700967915926596       -0.5846208389875066       -0.2507409529955272       -0.2058946535748549
O       -1.0761703620064871       -0.6488806635389817        0.4561752901603009       -0.9992971180892700
N       -0.5935557310589378       -0.5745234102662489        0.1899899366866038        0.6691943173322236
N       -0.9234847414481430       -1.7692602323288318        0.9748620981805827        0.0628076875181509
N        1.6445761159075258       -1.1529964665749197       -0.2189871372425447        0.7576134719858190
O        1.3838503558519091       -0.9048108797961344       -0.2442059082158229       -0.9235083265987739
N        1.1644960319408910       -0.5582170992956333       -0.1146278774385692        0.9955526175656415
O        1.5321201435713918       -1.0008987949232757       -0.1472393411613538       -0.9936641819349231
O        0.3718838994986630        0.1140633518902171        0.1874499358099087       -0.9934394819660318
N        0.6344219626691191       -0.1815171552877189       -0.0425156750599407        0.8475065253219278
N        0.1461879381278332        0.2876436368679134        0.1440209103507974        0.9207393412409772
O        0.3822750928006522        0.3434303814689034       -0.1791192174980037       -0.6738758902636315
N        2.1460894476937766        1.6527958929442657       -0.1353703103012328        0.1207489421105395
N        0.4762617683171987        0.9531756439661417        0.0623444886900943        0.4308753055723465
O        0.8925275743949591        0.9207173173171751        0.2683483223047298       -0.7095764258838037
N        1.0969373319821070        0.8913978344048741        0.0192544358439110        0.9977500474782615
O        0.9066525915976636        1.0190193475500668       -0.0687665831688390       -0.9963537733476465
O        0.2305255705935065        2.2044706552625990        0.7051424363178184       -0.1586318904925156
N        0.2329062526311293        2.1841340672057874        0.5301968343229774        0.3123697133706422

        RMSE         8.843414393E-01 kcal/mol

Coordinates in bohr
s                   x[bohr]                   y[bohr]                   z[bohr]                      q[e]
+       -3.5691312642793407        2.3164612307943719       -1.6911747208997916        0.1158659338886357
-       -3.5371099854126564        0.1077009933437336        0.6611206832355844       -0.2341991647481463
+       -6.3500074522617602       -0.7749952776468403        0.0834159856819283        0.0569852111266852
+       -4.0697331175746712       -0.6780485772816607        0.0597027976221725        0.3189271149812888
-       -3.5265021900152198       -0.6916456137998633       -0.5895914536450267       -0.2877498234141676
+       -2.6058265929239806       -1.2668745929769269        0.8690700283157368        0.5692545008206258
-       -1.6442446387496841       -1.1047732729217656       -0.4738317295978411       -0.2058946535748549
-       -2.0336672485270673       -1.2262067421940244        0.8620463636042259       -0.9992971180892700
+       -1.1216577718972951       -1.0856918980672567        0.3590289469307539        0.6691943173322236
+       -1.7451332423762234       -3.3434172837653802        1.8422223756504814        0.0628076875181509
+        3.1077984515344128       -2.1788475454471894       -0.4138257143864557        0.7576134719858190
-        2.6150981711774648       -1.7098447581492378       -0.4614822847465970       -0.9235083265987739
+        2.2005785745506752       -1.0548774362162450       -0.2166152947014422        0.9955526175656415
-        2.8952874626470577       -1.8914246017057712       -0.2782420296878085       -0.9936641819349231
-        0.7027587205197567        0.2155484960242329        0.3542290409153773       -0.9934394819660318
+        1.1988837574200653       -0.3430177105659879       -0.0803429819022457        0.8475065253219278
+        0.2762551659069789        0.5435676954110006        0.2721600769021217        0.9207393412409772
-        0.7223952299772082        0.6489893641377348       -0.3384862648775405       -0.6738758902636315
+        4.0555212968762913        3.1233315789461784       -0.2558128119875726        0.1207489421105395
+        0.9000043061457538        1.8012409165529073        0.1178140090559812        0.4308753055723465
-        1.6866326750256595        1.7399035686957109        0.5071048353820256       -0.7095764258838037
+        2.0729111342365942        1.6844977758514215        0.0363856104451902        0.9977500474782615
-        1.7133250890561516        1.9256674834123517       -0.1299500087726236       -0.9963537733476465
-        0.4356301933366221        4.1658457900548704        1.3325260840787643       -0.1586318904925156
+        0.4401290303795260        4.1274152083012403        1.0019268094551661        0.3123697133706422
