30
s                      x[A]                      y[A]                      z[A]                      q[e]
N 2.9629653563008569 -0.1913767312949348 -0.2661407856415680 0.2137068255539760
N 2.3470528195417888 0.3290252190310529 0.0181494168367153 0.4524136045707061
O 2.7186046404683801 0.5461015805052568 0.3763151470154419 -0.5303393512711568
N 3.0609084502793031 0.6040444497442996 0.9243244400284998 0.2065219334641430
N 3.4405603306125903 0.8863118682485628 -1.2349765099724959 0.0640972179527254
N 2.6531311978135790 -0.9113047103214714 -0.3171667136289518 0.2729192555687945
O 2.7048156322593240 -0.4098624198518280 -0.3005177484265202 -0.5760168259183410
O 1.0982914789606184 1.6091372411473754 -1.3493756239355970 -0.7855321009151053
O 0.5726718197258212 1.6178900992355056 -1.1046559953538633 -0.7445427033607991
N 0.8164823802843987 1.6356916585066450 -1.2633788144021030 0.9977538426035523
N 1.6059035389807761 0.7586775650435781 -0.4083923753150499 0.2084365764815679
N 0.8636074714517865 0.8662832824769509 -0.2038319285760031 0.3300899125146088
N 0.4744824522781972 0.4887700654100987 1.2401903144120601 0.6266498413516267
O 0.7207703904671984 0.1027636238961477 0.9877737328859681 -0.5811225412727979
N -0.1519634904865396 1.2210417102656308 1.3925423464414119 0.5003074335780895
O -0.1016009646871803 1.1340923794077089 1.3396337088073560 -0.5967490130385100
N 0.6663911449380774 -0.2979975401097900 1.4348462768781056 0.9708061175491041
O 0.6775860271858608 -0.5717602328888081 1.2377547255815795 -0.1568654630532827
O 0.5860764054512082 -0.1248808543440876 1.4508804984265906 -0.7813807259506527
N -0.4920923305383426 -0.5921704463316205 -0.0396793698303517 0.1400529194232831
N -0.9232457399715509 -0.0632814258574647 -0.0589580762741633 0.1778327620465852
N -1.4798775601310166 0.0344206418790684 -0.2649627293990641 0.7120624373414439
O -1.5563830320309786 0.1508694007155095 -0.3470704469123405 -0.9970019554920370
N -1.4571298372949066 -0.7270041239233968 0.9272080787967102 0.9931708722557875
N -1.8829325942737816 -1.0202913153511597 1.5147633171033785 0.8506195801821621
O -1.6579459715483698 -0.8887464645420280 1.3806632972750070 -0.8089940633040810
O -1.8093897261400929 -0.9873336294557601 1.3416262852111278 -0.9883399134133223
N -0.4455999067906636 -1.8805597112815535 -0.7666287889787091 0.2529889584625400
N -0.7554075622167733 -1.2383254843265439 -0.3190083084099252 0.5419198115726583
O -0.5629642019680352 -1.5686222724443728 -0.5357604863825576 -0.9654652454832693
