30
s                      x[A]                      y[A]                      z[A]                      q[e]
N -2.6577376076128281 -1.2481148230649874 0.5155177482577875 0.2137068255539760
N -2.2367773278201040 -0.7838700562450662 -0.0674787711688126 0.4524136045707061
O -2.5803276997327402 -0.9870978008704181 -0.4501387305373462 -0.5303393512711568
N -2.7886571408092249 -1.4098825792458187 -0.9081816423334794 0.2065219334641430
N -3.6992176261173384 -0.1421470593875188 0.6644233931574260 0.0640972179527254
N -2.1202700179324108 -1.5923465925644322 0.9727821422827355 0.2729192555687945
O -2.3505424291497308 -1.2696720345841874 0.6616360626428477 -0.5760168259183410
O -1.8816443067747295 1.4337737686906473 0.1681512801984170 -0.7855321009151053
O -1.3554908367293359 1.5257589289644047 -0.0668504521504507 -0.7445427033607991
N -1.6234447699101271 1.5195647747345724 0.0678230209610580 0.9977538426035523
N -1.8208612844898717 0.0781421026765677 -0.0332691721496673 0.2084365764815679
N -1.1501379053517107 0.3516556693709656 -0.3083117753029643 0.3300899125146088
N -0.3551840151250554 -0.5769314874300576 -1.2613899685455214 0.6266498413516267
O -0.4724202224144448 -0.7921504102925079 -0.7908111402505750 -0.5811225412727979
N -0.0338601887603843 0.1134810416392891 -1.8587349768433494 0.5003074335780895
O -0.0381182443864956 0.0947483663829819 -1.7522369953804109 -0.5967490130385100
N -0.1912278333223972 -1.3176302767003389 -0.9311094995625653 0.9708061175491041
O -0.1306125642037147 -1.3953753744879425 -0.5888204716305845 -0.1568654630532827
O -0.1649929871202321 -1.1592819223432818 -1.0264291084077179 -0.7813807259506527
N 0.6567365444516506 -0.1843614959403085 0.3586296937508781 0.1400529194232831
N 0.8431321174877562 0.3807893381363151 0.0276567301341170 0.1778327620465852
N 1.2658101650468214 0.8015179039505105 0.1004165193713738 0.7120624373414439
O 1.2754933479134949 0.9742553592689629 0.0784978017119739 -0.9970019554920370
N 1.7835027279347357 -0.4215899269104723 -0.3888309531041055 0.9931708722557875
N 2.4041038993598547 -0.7788152819311460 -0.7059620956629524 0.8506195801821621
O 2.1266184883059949 -0.7020731015426157 -0.6662136769491929 -0.8089940633040810
O 2.2916373110168173 -0.6851932196116344 -0.5857024521113061 -0.9883399134133223
N 0.9434038746526859 -0.6940422458481692 1.7196735353552173 0.2529889584625400
N 1.0774280068540401 -0.3666740854760708 0.9563810934497641 0.5419198115726583
O 0.9841773141621418 -0.5582926122609492 1.3361091145748765 -0.9654652454832693
