25
s                      x[A]                      y[A]                      z[A]                      q[e]
N 0.0807653375983574 -0.0105299030294910 0.2391429948257627 0.1158659338886357
O -0.1618097834924641 0.4137764098930382 0.2926672667609323 -0.2341991647481463
N -0.0782858789398503 -0.0168019648121264 -0.3903589348756023 0.0569852111266852
N -0.5156874159273570 0.0047518436442475 0.1587747492487357 0.3189271149812888
O -0.2366283695563541 -0.3760481614506718 0.2606741306664666 -0.2877498234141676
N -0.0040925263900119 0.1176441926421903 -0.5527929070181116 0.5692545008206258
O -0.1479682588795258 -0.4915458066014192 0.0519497289476874 -0.2058946535748549
O -0.0348943029816813 0.1567427883783434 -0.2576925118043977 -0.9992971180892700
N -0.1978404773932643 -0.0109688609407796 0.2374480881228285 0.6691943173322236
N 0.0146883092646000 -0.0026966854583151 0.3993410877437666 0.0628076875181509
N 0.0580633901654503 0.0056373396779732 0.2690421202285780 0.7576134719858190
O 0.0279872024461370 -0.0739639037789876 -0.0689736160923781 -0.9235083265987739
N 0.0997102365297077 -0.0056424329154016 -0.5009700156451278 0.9955526175656415
O 0.0604365116480476 0.0481747105118675 0.0783905309241352 -0.9936641819349231
O -0.0437100152998224 0.1069882763666292 -0.1269797049999117 -0.9934394819660318
N -0.0333286967444910 -0.0462470690466137 0.2839244537880440 0.8475065253219278
N -0.0829833820542177 0.0227056601953203 -0.3951225360577124 0.9207393412409772
O 0.1528096728828449 -0.2480519697040028 -0.2270732852413342 -0.6738758902636315
N -0.0668090985456151 0.0251606687621885 0.2151263115167778 0.1207489421105395
N 0.2682390236291994 0.0755093876141235 -0.4865801387936822 0.4308753055723465
O 0.3532503697153320 -0.2051931365115769 -0.1307123661771918 -0.7095764258838037
N 0.4504772250611792 -0.0061754833814754 0.0887439087674664 0.9977500474782615
O 0.3121431340247133 0.1188169768717558 -0.0438649058242904 -0.9963537733476465
O -0.0241469367148043 -0.3650910609571111 -0.1413610519805830 -0.1586318904925156
N -0.0393435925447497 -0.1995287052780262 -0.0772957677892623 0.3123697133706422
