24
s                      x[A]                      y[A]                      z[A]                      q[e]
N        1.6082773234513983       -0.3733989490153640       -0.1611824868516326        0.6959175615854226
O        1.7475505989104811       -0.4409155701548566       -0.4368799349063749       -0.4294665048044459
N        1.7670284054275680       -0.9291460232277545        0.9513435671916919        0.7289443612696791
O        1.6978314042255520       -0.8838019737511938        0.7655533413308121       -0.8899528116456963
N        2.4679536365204626        0.1130852023153107       -0.0169771202859687        0.4821174903544280
O        2.2364593612529555        0.0240962385048143        0.0614983619237902       -0.6035297564939646
N        1.9072593935551174       -1.6822260054766258       -0.8648727854305612        0.0604057803354635
N        0.3063486769808595        1.6076784590214843        0.0090796333197859        0.6991174418445399
O       -0.0236862482351120        1.4945512149343039       -0.0488238380525947       -0.4131324281244263
O        0.5356023779820045        1.5128053546291731       -0.0035864241598197       -0.9286014603942530
O       -0.0032313578260773       -0.1267270328785405       -0.0150971687427739       -0.1057946580878595
N        0.6844073687675736        0.1297302170266176       -0.2031718430479434        0.9961038253671308
O        0.8075038178226374       -0.1233479051957794       -0.4410059568389831       -0.3737552305035935
N       -0.2999812528558057       -0.4881356295528110       -0.0864737785632093        0.9714181100989372
O       -0.5855107043348343       -0.7023462573533760       -0.3961234556093521       -0.9973398242463560
N       -0.8271098795587674       -0.6919355192738265       -0.1649408569240988        0.7637225416907655
O       -0.6467867957231282       -0.7166282688771625        0.0227650232556585       -0.9974375214017446
O       -2.1142549019037009       -0.4383762989209198       -0.0124879023413843       -0.4871145088925188
N       -1.4673309608762231       -0.1406182487332863       -0.2160774705857929        0.4662300369825688
N       -2.2883728205923930       -0.5746186258180793        0.0569544128511840        0.6223673236702755
N       -2.0021459667875070        0.0215040894455113        1.0702960618467972        0.9509229066582735
O       -1.9947475180328413       -0.0600484923153689        0.9858351261636301       -0.9922381659518612
O       -2.0204527042919089        0.2646643374662584       -0.3779737996952540       -0.6086911331096487
N       -2.1666402411683512        0.5305649625854957       -0.5934554950205284        0.3897866237988844

        RMSE         8.234130804E-01 kcal/mol

Coordinates in bohr
s                   x[bohr]                   y[bohr]                   z[bohr]                      q[e]
+        3.0392036751074971       -0.7056217491728288       -0.3045907563697929        0.6959175615854226
-        3.3023920223206105       -0.8332096720427663       -0.8255834266808920       -0.4294665048044459
+        3.3391997421625623       -1.7558315144587338        1.7977787932083849        0.7289443612696791
-        3.2084363611877760       -1.6701436795288247        1.4466861495443697       -0.8899528116456963
+        4.6637564633513708        0.2137000612179267       -0.0320821077394352        0.4821174903544280
-        4.2262956834844365        0.0455352914278105        0.1162150612002473       -0.6035297564939646
+        3.6041979040259591       -3.1789464314737432       -1.6343726978256141        0.0604057803354635
+        0.5789150983901714        3.0380719853486813        0.0171580202939768        0.6991174418445399
-       -0.0447605221039705        2.8242924766960917       -0.0922636823131102       -0.4131324281244263
-        1.0121418065299326        2.8587878013752430       -0.0067773594317844       -0.9286014603942530
-       -0.0061063813046409       -0.2394793848323311       -0.0285295141936651       -0.1057946580878595
+        1.2933424852159339        0.2451545803765132       -0.3839391397651161        0.9961038253671308
-        1.5259610609463765       -0.2330937589689598       -0.8333804781211537       -0.3737552305035935
+       -0.5668824106691868       -0.9224426519327512       -0.1634117585179518        0.9714181100989372
-       -1.1064548747167504       -1.3272420716382018       -0.7485648429716270       -0.9973398242463560
+       -1.5630111480264803       -1.3075686279039784       -0.3116930464848712        0.7637225416907655
-       -1.2222499054791509       -1.3542311619387910        0.0430196591928729       -0.9974375214017446
-       -3.9953627240047016       -0.8284111448523724       -0.0235987153066799       -0.4871145088925188
+       -2.7728536514609372       -0.2657299783474183       -0.4083272412888183        0.4662300369825688
+       -4.3243979038610645       -1.0858718293831007        0.1076282419249935        0.6223673236702755
+       -3.7835075404183729        0.0406368396293647        2.0225664300465200        0.9509229066582735
-       -3.7695264985188204       -0.1134752047227062        1.8629583933054259       -0.9922381659518612
-       -3.8181022605523398        0.5001431129869757       -0.7142669640226855       -0.6086911331096487
+       -4.0943566682040826        1.0026224710503664       -1.1214683532368006        0.3897866237988844
