25
s                      x[A]                      y[A]                      z[A]                      q[e]
N        2.0047986835817042        1.1990758319071437        0.0640975576356399        0.1158659338886357
O        1.8136129904593861       -0.4359779799313759       -0.2468420625008087       -0.2341991647481463
N        3.1784574753143771       -0.8483397376284351        0.4909763723432308        0.0569852111266852
N        2.0101454752105381       -0.6450455358236260        0.2852186771298815        0.3189271149812888
O        1.7181352530481009       -0.4400842285700539        0.5297382046758249       -0.2877498234141676
N        1.1703331111726003       -1.0210997281390741        0.2199732352471978        0.5692545008206258
O        0.8542505633899785       -0.5709525818833557       -0.5424264652929699       -0.2058946535748549
O        0.9827439358504322       -0.7723764023230921        0.2235623241978890       -0.9992971180892700
N        0.6278709598667119       -0.4517586912358121       -0.0912448373602297        0.6691943173322236
N        0.6006504063510106       -2.1800974691465163        0.0696430666611825        0.0628076875181509
N       -0.4278684463742934        1.6860919391883071       -0.2384630224023490        0.7576134719858190
O       -0.4036029640223940        1.3313088733998755       -0.3081554676161100       -0.9235083265987739
N       -0.5416773409841728        0.9216794930948723       -0.2533070503779513        0.9955526175656415
O       -0.4360363763988592        1.4890966991357610       -0.1872160838493162       -0.9936641819349231
O       -0.5010382150988161       -0.1368148645847960       -0.1000125503280726       -0.9934394819660318
N       -0.4629813417936083        0.2734700656504864       -0.2746833711219353        0.8475065253219278
N       -0.4878453443196676       -0.4291950283011051       -0.1916606934418373        0.9207393412409772
O       -0.6632654893863200       -0.2277821648247917       -0.4940464332498033       -0.6738758902636315
N       -2.8258418390890347        0.0127684872648933        0.3191744189044452        0.1207489421105395
N       -1.1907817932515257       -0.6025437124207298       -0.3714004019363332        0.4308753055723465
O       -1.2257460894035879       -0.9980018934105929        0.1975122939605171       -0.7095764258838037
N       -1.5647155730129814       -0.1956066522357727        0.0792012346155649        0.9977500474782615
O       -1.5523614435548569       -0.3239666019183531       -0.1363616395847986       -0.9963537733476465
O       -1.8824022959370275       -1.8521552456206514       -0.2224491101599437       -0.1586318904925156
N       -1.8975468416312080       -1.7393763236120965       -0.3542467351741445        0.3123697133706422

        RMSE         5.662722511E+00 kcal/mol

Coordinates in bohr
s                   x[bohr]                   y[bohr]                   z[bohr]                      q[e]
+        3.7885204486478079        2.2659249259600087        0.1211268292421075        0.1158659338886357
-        3.4272318495408007       -0.8238789788006498       -0.4664638943696723       -0.2341991647481463
+        6.0064141297583085       -1.6031297654604930        0.9278108777995135        0.0569852111266852
+        3.7986244204761950       -1.2189594011558496        0.5389851856408583        0.3189271149812888
-        3.2468050747550929       -0.8316386641307851        1.0010601250290325       -0.2877498234141676
+        2.2116090556712038       -1.9295988329622944        0.4156891695481105        0.5692545008206258
-        1.6142996073251110       -1.0789440103825771       -1.0250374626038692       -0.2058946535748549
-        1.8571168902118136       -1.4595798661570736        0.4224715647048236       -0.9992971180892700
+        1.1865041562764091       -0.8537002012309505       -0.1724277529727765        0.6691943173322236
+        1.1350647651483654       -4.1197871434906634        0.1316063225266377        0.0628076875181509
+       -0.8085541813725541        3.1862519874079958       -0.4506298033893542        0.7576134719858190
-       -0.7626990654253338        2.5158091591175729       -0.5823294378568368       -0.9235083265987739
+       -1.0236218228263196        1.7417218174001081       -0.4786809508618767        0.9955526175656415
-       -0.8239893321308874        2.8139849356898630       -0.3537871247559562       -0.9936641819349231
-       -0.9468250049249917       -0.2585426239568640       -0.1889963292286247       -0.9934394819660318
+       -0.8749079371869019        0.5167835275903915       -0.5190763426379494        0.8475065253219278
+       -0.9218940923438457       -0.8110610578972103       -0.3621862196204038        0.9207393412409772
-       -1.2533901234079008       -0.4304459077827499       -0.9336124521014103       -0.6738758902636315
+       -5.3400671497383447        0.0241289439670445        0.6031522379815510        0.1207489421105395
+       -2.2502514644269302       -1.1386425950918015       -0.7018450425446271        0.4308753055723465
-       -2.3163244083237267       -1.8859502512343760        0.3732441419962955       -0.7095764258838037
+       -2.9568838972333467       -0.3696430010432835        0.1496686422215480        0.9977500474782615
-       -2.9335379760390410       -0.6122081514209080       -0.2576861528336582       -0.9963537733476465
-       -3.5572247972539990       -3.5000661560531054       -0.4203678950540921       -0.1586318904925156
+       -3.5858438409104818       -3.2869448807325687       -0.6694293103167214        0.3123697133706422
