21
s                      x[A]                      y[A]                      z[A]                      q[e]
N 0.0216570301207709 -1.2669170583190588 -0.3146197842232378 0.0707249461841811
O -0.1663526387573716 0.3167015458745485 0.5669056409731015 -0.3496602100029151
N 0.2933494559618156 0.1196555725356359 0.3445886231720965 0.9824851761690530
N 0.2345157637515077 0.1238260935651700 -0.2369306161931140 0.1071394941056757
O 0.2637568056526821 -0.0499706094250922 0.2664229251016286 -0.8194842575378962
N 0.3188135328673104 0.4157294071258802 0.4125483549138690 0.3116552922920345
N 0.0249005894114706 -1.3621931952182487 -0.2425058889274724 0.0918298459672651
N 0.4550069698761233 0.4696161822929413 -0.4201194411618258 0.5593901217632046
O 0.3498695095571991 0.4353519416111213 -0.0831244957336204 -0.9963138680841535
N 0.1117370715294464 0.1827041839977466 -0.3956676645130713 0.9989733053171830
O 0.0745736875569264 0.2062755562864971 -0.3037708444124029 -0.8354521971080898
N -0.2239953133447644 0.1722294090047192 0.4176356245802701 0.2899344186932475
O -0.1643910685170950 0.1504650577709532 0.0355398452965234 -0.8678253524624289
N 0.0952645485985161 0.1780327124036840 -0.3342454061943280 0.9219570073558310
O 0.2158910763461915 0.3206869551999076 -0.1445208024424977 -0.9704818863270434
O 0.2221595243002856 -0.3542779508912386 -0.1426515846636155 -0.3320651923316272
N 0.0528436975593559 0.1209400719359883 0.4180686424560797 0.9769593393400061
O 0.2404087402496100 -0.2913688619492060 0.1664354660643398 -0.1970026432733326
O 0.4319167625595589 0.6739091064712942 -0.0365912328438246 -0.1946060569702309
N 0.3883531218352353 0.4962027271516347 0.3125058353675902 0.1283355164991325
N -0.2330680467948604 0.3466329285007057 0.0732743380086964 0.1235072004109040
