21
s                      x[A]                      y[A]                      z[A]                      q[e]
N 2.0556530401361046 1.5381657676330189 -0.3229887514780928 0.0707249461841811
O 1.6853453960145506 0.0082012918543876 -0.3144580303995915 -0.3496602100029151
N 1.5576774063692822 0.2866342957890715 0.1065126245434841 0.9824851761690530
N 3.1026357375822924 -0.5515983454540150 0.0184099998782464 0.1071394941056757
O 1.6160101764522810 0.2213757211940764 0.2835483420676000 -0.8194842575378962
N 0.6348925986583291 -0.3487063316122072 -0.0633749469077189 0.3116552922920345
N 0.8279574288083171 -1.8686007613732942 0.2581975892097098 0.0918298459672651
N 1.3930687848222105 -0.7032746228676788 0.0511659166463332 0.5593901217632046
O 1.0617567591084045 -0.5710732678916235 0.0099085218446789 -0.9963138680841535
N -1.2983309668751615 -0.4663390244481610 -0.1161949598235270 0.9989733053171830
O -1.3503830126619101 -0.5357827264474834 -0.1386612908368106 -0.8354521971080898
N -1.7716059509297153 -1.2029028392195817 -0.0788984747209368 0.2899344186932475
O -1.5016063048538002 -0.9165714656527497 -0.0522646292984149 -0.8678253524624289
N -0.2315318691265014 0.2813367465690070 -0.0417262056664849 0.9219570073558310
O -0.4253188990651211 0.2687643866036496 -0.2208203472673969 -0.9704818863270434
O -0.5398778982642691 0.3642698625065042 0.4372786803478457 -0.3320651923316272
N -0.8243231901019299 -0.1810149175655980 -0.0158750500328634 0.9769593393400061
O -0.7818140880685911 1.1220885873701101 -0.4884870044025116 -0.1970026432733326
O -0.8716490214081228 1.0607591026724581 0.5106746650604819 -0.1946060569702309
N -2.0903887875038221 1.6063548858877827 -0.0334830787746683 0.1283355164991325
N 0.0005978718771635 2.1874713894288118 0.1202047542428054 0.1235072004109040
