21
s                      x[A]                      y[A]                      z[A]                      q[e]
N 0.1514057706022639 0.1073048881361535 0.0215382622758644 0.0707249461841811
O 0.7058253088006136 -0.3724210521149790 -0.4911713605918981 -0.3496602100029151
N 0.7969097122821212 0.1216042787579569 0.6584136495535211 0.9824851761690530
N 1.2990963175137829 -0.2464897442555606 0.9432594652879820 0.1071394941056757
O 0.7624848463019404 0.2584811588377677 -0.5824555338344527 -0.8194842575378962
N -0.4823744630341786 0.1266380732884499 0.5078220981728329 0.3116552922920345
N -1.2701534241532335 -0.0610164380251327 0.2718884975805375 0.0918298459672651
N -0.1977597595289880 -0.0438735129752245 -0.0812756522424336 0.5593901217632046
O -0.2723052217838255 0.0099878763829078 -0.4238216967721514 -0.9963138680841535
N 1.3131009002839511 0.2057746583925565 -0.3765798196304963 0.9989733053171830
O 1.3447178625518299 0.2186198243622903 -0.2805989092875671 -0.8354521971080898
N 0.7110711420702394 -0.2507132089470359 -0.1396915144382684 0.2899344186932475
O 0.9836592194620007 -0.2166428031193276 0.1334680852475826 -0.8678253524624289
N -0.0205895900777715 0.1825575961226348 0.3659772313078107 0.9219570073558310
O 0.1739312108268977 0.3627162464263012 0.3423616207593805 -0.9704818863270434
O 0.2607406815970299 -0.2823647027035183 0.1640467288445713 -0.3320651923316272
N 0.6987153439827428 0.1544285188644353 0.5956474647818014 0.9769593393400061
O -0.2067166976564450 0.5919062866707364 0.6569360402168555 -0.1970026432733326
O 0.3184005692184479 -0.2959578709315785 -0.6176208608113336 -0.1946060569702309
N -0.2694896737281048 0.0942176036990258 0.3598411153146556 0.1283355164991325
N -0.8749470701343425 0.4387502531260403 0.1956487773418531 0.1235072004109040
