25
s                      x[A]                      y[A]                      z[A]                      q[e]
N 0.0677290614493488 -0.0079293948007225 0.2425626152601819 0.1158659338886357
O -0.1688264902375381 0.4319380988371410 0.3019791636081283 -0.2341991647481463
N -0.0819285384960280 -0.0085749012416234 -0.3913580651012490 0.0569852111266852
N -0.5165608986004078 -0.0214153477946889 0.1462751470379615 0.3189271149812888
O -0.2341228252266131 -0.3512970552593909 0.2686341717699492 -0.2877498234141676
N 0.0285335906908050 0.1191497568243129 -0.5558179061164319 0.5692545008206258
O -0.1567493941767761 -0.4977339118618513 0.0447116801222729 -0.2058946535748549
O -0.0630892133835289 0.1616120916173943 -0.2682367124302655 -0.9992971180892700
N -0.1891316406540427 -0.0148471607589310 0.2398838414931363 0.6691943173322236
N 0.0171582303596058 -0.0174755305200361 0.3844009505959143 0.0628076875181509
N 0.0586376533926287 0.0045593450703568 0.2896247226130681 0.7576134719858190
O 0.0353446308392226 -0.0750912837327418 -0.0555652362490517 -0.9235083265987739
N 0.1059754488599399 -0.0094266776998310 -0.4808284229630749 0.9955526175656415
O 0.0684920184620378 0.0512490227991939 0.0972258280080662 -0.9936641819349231
O -0.0418901104021049 0.1138900600231713 -0.1250010053389419 -0.9934394819660318
N -0.0283197049955723 -0.0514803032846305 0.2947294926998213 0.8475065253219278
N -0.0798854920275206 0.0212970132103623 -0.4010191612336944 0.9207393412409772
O 0.1553999163100326 -0.2559923844524881 -0.2277127550475816 -0.6738758902636315
N -0.0656723564796294 0.0234262537515392 0.2204008897611652 0.1207489421105395
N 0.2630118495882163 0.0753496298425787 -0.4873299073327979 0.4308753055723465
O 0.3500806030270330 -0.2107487546770986 -0.1277227530831528 -0.7095764258838037
N 0.4478155112761050 -0.0075757443408041 0.1030520642929973 0.9977500474782615
O 0.3063539530675246 0.1251022779625704 -0.0378105510611861 -0.9963537733476465
O -0.0313783789086338 -0.3698497750850634 -0.1416476336369291 -0.1586318904925156
N -0.0342903498985470 -0.2017036172100712 -0.0907569044440394 0.3123697133706422
