21
s                      x[A]                      y[A]                      z[A]                      q[e]
N 1.7484225440042955 0.6683025746165285 -1.6604859419061284 0.0707249461841811
O 1.6207696409026551 -0.1409414917741432 -0.3204076684284127 -0.3496602100029151
N 1.4967633177041635 0.3761588977683535 -0.3079683802622669 0.9824851761690530
N 3.1386118102429874 -0.0937441467974992 0.1001811866749986 0.1071394941056757
O 1.5710280107914387 0.4759668463520410 -0.1600607546099009 -0.8194842575378962
N 0.6874046077341669 0.0046988449738940 0.2826378266385531 0.3116552922920345
N 1.0721602056654020 -0.6902939658071036 1.6728576325750639 0.0918298459672651
N 1.4621972295277490 -0.1107695765083220 0.5998319570419439 0.5593901217632046
O 1.1251304086229890 -0.0975814894944433 0.4721722489625649 -0.9963138680841535
N -1.0722609114065387 -0.6765150656021337 -0.2331589815852933 0.9989733053171830
O -1.0944800025817274 -0.7636724951060240 -0.2649379227692966 -0.8354521971080898
N -1.3127093575011080 -1.5204520157623636 -0.2655071593727977 0.2899344186932475
O -1.1478360903828508 -1.1724700421065763 -0.1939027514189775 -0.8678253524624289
N -0.3095622969769288 0.3515784900607382 0.0507410120017864 0.9219570073558310
O -0.4450892638601981 0.2747961153875044 -0.1694024552321800 -0.9704818863270434
O -0.7415931164075673 0.3280729590533022 0.4348046005953381 -0.3320651923316272
N -0.7366632892061774 -0.2640911844768439 -0.0385978968245599 0.9769593393400061
O -0.9837523921311269 1.0138131724585258 -0.4722483767245649 -0.1970026432733326
O -1.2506433138251016 0.8768311751233930 0.4869795487714795 -0.1946060569702309
N -2.4367260275993909 1.1009127178329738 -0.3001115797681524 0.1283355164991325
N -0.6549589541458262 2.2173775562709750 0.2832292216497080 0.1235072004109040
