21
s                      x[A]                      y[A]                      z[A]                      q[e]
N 0.0260905463610140 -0.0465188751392059 0.3775158648549816 0.0707249461841811
O 0.1066469087678573 0.2863452958496132 0.3144355378209356 -0.3496602100029151
N 0.3707503189972935 -0.1753609213285880 0.3130663510298796 0.9824851761690530
N 0.0339556088596935 -0.0134373492181819 -0.1892085054848818 0.1071394941056757
O 0.2608321443694785 -0.3340835227328701 0.3219358299265332 -0.8194842575378962
N 0.0960126851039065 0.1232525917669119 0.2877709551878149 0.3116552922920345
N 0.0290237586742227 -0.0140529915417761 0.2442368091301675 0.0918298459672651
N 0.0843166321417780 0.0362158743575400 -0.5527862954949918 0.5593901217632046
O 0.0534657622101417 0.0624872926622261 -0.1943968357370898 -0.9963138680841535
N 0.2199066625271709 0.0817157057833359 -0.4243359093529974 0.9989733053171830
O 0.2046803588182766 0.1017574938007831 -0.3323223612115334 -0.8354521971080898
N 0.0303105324553869 0.0050021349880971 0.4296311691686879 0.2899344186932475
O 0.0392246901194943 -0.0003093533840847 0.0381031812515355 -0.8678253524624289
N -0.0044217381680123 0.0756905114760676 -0.3474643640565703 0.9219570073558310
O 0.1250031862927374 0.2440374299750481 -0.1812273587326687 -0.9704818863270434
O 0.2623860645846233 -0.4166502139582341 -0.2021296280904437 -0.3320651923316272
N 0.0861123358924024 0.0105778501994083 0.3988665070148316 0.9769593393400061
O 0.1977536216899194 -0.5151179421604641 -0.0949168879226583 -0.1970026432733326
O 0.2285100981121384 0.4892252910619324 -0.0734284313354867 -0.1946060569702309
N 0.0226495894096781 -0.0002436879683878 0.1837497667938516 0.1283355164991325
N 0.0379583353662450 0.0047368788894097 -0.1481846291107886 0.1235072004109040
