21
s                      x[A]                      y[A]                      z[A]                      q[e]
N        1.7484761239772648        0.6678570726436640       -1.6603073444384815        0.0707249461841811
O        1.6208728954803848       -0.1393845364689822       -0.3209090910283177       -0.3496602100029151
N        1.4964885622390649        0.3743290085085759       -0.3072699128243545        0.9824851761690530
N        3.1385140887976535       -0.0943635195441861        0.1003086657886977        0.1071394941056757
O        1.5711912219620414        0.4775017644250403       -0.1606907413317369       -0.8194842575378962
N        0.6872147609317316        0.0033341298468026        0.2831698009092050        0.3116552922920345
N        1.0720988945655110       -0.6908546461025538        1.6730128395944599        0.0918298459672651
N        1.4619166710430613       -0.1124453898471548        0.6003226040135329        0.5593901217632046
O        1.1253264347358971       -0.0958375265449650        0.4714929382288083       -0.9963138680841535
N       -1.0721046390214080       -0.6775174282578069       -0.2325626437208381        0.9989733053171830
O       -1.0943748379068323       -0.7625815448728528       -0.2653612089700602       -0.8354521971080898
N       -1.3124845181867246       -1.5209168656927778       -0.2651869885892597        0.2899344186932475
O       -1.1478789001884648       -1.1714722121608665       -0.1943234873460203       -0.8678253524624289
N       -0.3099040691958422        0.3501733126253267        0.0514731243112597        0.9219570073558310
O       -0.4446553419633341        0.2761150320017727       -0.1700228903701488       -0.9704818863270434
O       -0.7413372206053488        0.3289688473624070        0.4342698243489758       -0.3320651923316272
N       -0.7366859069839092       -0.2653088976482463       -0.0379565776892850        0.9769593393400061
O       -0.9833680115892468        1.0143691070838887       -0.4726433988586763       -0.1970026432733326
O       -1.2503845126255841        0.8773193574601402        0.4866156141250093       -0.1946060569702309
N       -2.4368791205756311        1.1006820162611159       -0.2999013786845310        0.1283355164991325
N       -0.6553318605130917        2.2171046260676754        0.2835112599246180        0.1235072004109040

        RMSE         8.330481292E-01 kcal/mol

Coordinates in bohr
s                   x[bohr]                   y[bohr]                   z[bohr]                      q[e]
+        3.3041410112190777        1.2620669582465185       -3.1375261650749073        0.0707249461841811
-        3.0630058566357588       -0.2633986000502651       -0.6064302932131362       -0.3496602100029151
+        2.8279535325119842        0.7073793068953815       -0.5806559818313320        0.9824851761690530
+        5.9309320687183957       -0.1783212081727989        0.1895559063507198        0.1071394941056757
-        2.9691211002316789        0.9023475591862081       -0.3036614920137692       -0.8194842575378962
+        1.2986476875329489        0.0063005922771716        0.5351133707188166        0.3116552922920345
+        2.0259732901349037       -1.3055260736339180        3.1615360712080376        0.0918298459672651
+        2.7626221265124107       -0.2124909908814588        1.1344453085072475        0.5593901217632046
-        2.1265587633887382       -0.1811066777112784        0.8909925233398531       -0.9963138680841535
+       -2.0259841455832888       -1.2803223846317775       -0.4394797036448087        0.9989733053171830
-       -2.0680687222362168       -1.4410702681382210       -0.5014600092737969       -0.8354521971080898
+       -2.4802362832763833       -2.8741163357490769       -0.5011307804686109        0.2899344186932475
-       -2.1691767465479406       -2.2137616445682653       -0.3672181708278483       -0.8678253524624289
+       -0.5856338159450736        0.6617316573061915        0.0972701077699259        0.9219570073558310
-       -0.8402768165324969        0.5217817896053741       -0.3212966978583224       -0.9704818863270434
-       -1.4009243135522209        0.6216610253224890        0.8206510325702416       -0.3320651923316272
+       -1.3921346046840888       -0.5013611552023080       -0.0717275364924116        0.9769593393400061
-       -1.8582962224397159        1.9168798025137539       -0.8931665788484253       -0.1970026432733326
-       -2.3628842803764201        1.6578933101623021        0.9195702390677354       -0.1946060569702309
+       -4.6050341387344673        2.0799875619502290       -0.5667314703609796        0.1283355164991325
+       -1.2383977376564745        4.1897205347534952        0.5357586347410156        0.1235072004109040
