11
s                      x[A]                      y[A]                      z[A]                      q[e]
C 1.5668361314784423 -0.5924417738845250 -0.4042682735900213
C 0.4867540981082487 0.2530380219706946 0.1982336473078365
H 1.8165506510446412 -1.4144854438953591 0.2729781134756711
H 2.4528681773429430 0.0095948911162611 -0.6043284277020271
H 1.2033649317005790 -1.0386047582696909 -1.3364735567621713
O -0.6643646447352337 -0.4682830484728176 0.5086136394271772
O 0.5570715063349178 1.4568605281433766 0.4040045505307453
C -1.7889088307224081 -0.3836123934835649 -0.4185427991351358
H -2.0949606377375298 0.6579339502878137 -0.5484055054224962
H -2.5888596421307239 -0.9560865598909070 0.0447958717552979
H -1.5187082611388709 -0.8288754399525100 -1.3820486990491456
