21
s                      x[A]                      y[A]                      z[A]                      q[e]
N -2.0197753143654174 1.5175249006983353 -0.4911947609741389 0.0707249461841811
O -1.6982395950003941 0.1182537985290770 0.2164685589877713 -0.3496602100029151
N -1.5397793429316777 0.2227123741635754 -0.2969092184753275 0.9824851761690530
N -3.1098010175498603 -0.5048092893902760 0.0691104587207279 0.1071394941056757
O -1.5866080531667228 0.0807395504278863 -0.4127083209415097 -0.8194842575378962
N -0.6223111507072808 -0.3342299053778113 0.2420273065709740 0.3116552922920345
N -0.8452073515944647 -1.8242391269238545 0.4618418272968482 0.0918298459672651
N -1.3967077824505933 -0.6722183199676633 0.2126711523374281 0.5593901217632046
O -1.0559767924508479 -0.5741149570467264 0.2042071324077352 -0.9963138680841535
N 1.3046912444278316 -0.4721822486682872 0.0173070429070670 0.9989733053171830
O 1.3556365178238774 -0.5601045754332644 0.0247900783415132 -0.8354521971080898
N 1.7570358967750015 -1.2119777914671288 -0.1322759292602636 0.2899344186932475
O 1.4866543674741306 -0.9359532775005347 -0.1052975335521225 -0.8678253524624289
N 0.2437574397367935 0.2888323312697089 0.1398077109131416 0.9219570073558310
O 0.4642984722931521 0.2431505446159516 0.2818332184112998 -0.9704818863270434
O 0.4866194770870423 0.3815371499719316 -0.3784480338384723 -0.3320651923316272
N 0.8233515638662681 -0.1760156387476228 0.0018854790555425 0.9769593393400061
O 0.8850945751636408 1.0596461691930068 0.5581050313363153 -0.1970026432733326
O 0.7969565904557572 1.1035712293951361 -0.4418744705208452 -0.1946060569702309
N 2.0998703589234906 1.5948620940271607 -0.0647116550106586 0.1283355164991325
N 0.0209639606547765 2.1863230679378440 0.2128802424438114 0.1235072004109040
