21
s                      x[A]                      y[A]                      z[A]                      q[e]
N -1.9824470190798966 1.4198836847033944 -0.1314103285220760 0.0707249461841811
O -1.6423787383497279 -0.0808598537093817 0.2616977173784564 -0.3496602100029151
N -1.4835123404226891 0.1213219202359058 -0.2204714756936965 0.9824851761690530
N -3.0371261884482044 -0.7005698831744391 -0.0306150273248260 0.1071394941056757
O -1.5263840253509340 0.0026666179477735 -0.3610282327364767 -0.8194842575378962
N -0.4805809220864632 -0.6563023814736736 -0.0721090032432232 0.3116552922920345
N -0.7301256450131083 -2.0141192122249327 0.1486426499048280 0.0918298459672651
N -1.2375236783522814 -1.0170529979804750 0.0331148301191474 0.5593901217632046
O -0.9415058339020046 -0.8232299980726655 0.0069505325668669 -0.9963138680841535
N 0.7135325943841379 0.8871222897410205 -0.0605962920758302 0.9989733053171830
O 0.6842759817812382 0.9835592371821480 -0.0756413775952981 -0.8354521971080898
N 0.4959058315097018 1.7354767873512427 0.0212735426542961 0.2899344186932475
O 0.5088348709145156 1.3479690762262415 0.0302843926799479 -0.8678253524624289
N 0.5323906915351714 -0.4038471795233318 -0.0493628399478016 0.9219570073558310
O 0.6418734119862795 -0.2273457895641669 -0.2150419971966101 -0.9704818863270434
O 0.7962354732380131 -0.2439918744897297 0.4406447128395604 -0.3320651923316272
N 0.5998586944397970 0.3455056107078205 0.0136407924925656 0.9769593393400061
O 1.4930527646949592 -0.5344611801760871 -0.5501980471726859 -0.1970026432733326
O 1.5512869989145377 -0.5011283582275233 0.4518168247490090 -0.1946060569702309
N 2.7702395435256921 0.0315608593659772 -0.1056474841906811 0.1283355164991325
N 1.7352699120048922 -1.8856819772507034 -0.0499782192042862 0.1235072004109040
