21
s                      x[A]                      y[A]                      z[A]                      q[e]
N -1.9703193532494647 1.4191311454833944 0.2204115211594013 0.0707249461841811
O -1.6099516477099793 -0.1194436063349562 0.3203328866435033 -0.3496602100029151
N -1.5033002143003382 0.1538526621123931 -0.1416484610460526 0.9824851761690530
N -3.0376505535254923 -0.6919903228721123 0.0541475705822268 0.1071394941056757
O -1.5625245387612305 0.0571756523805606 -0.2929672112262507 -0.8194842575378962
N -0.4799574097255970 -0.6505766493209975 -0.1801990634052812 0.3116552922920345
N -0.7363787051107353 -2.0087887013461967 -0.1803609266800932 0.0918298459672651
N -1.2438739911594285 -1.0063855984726719 -0.1126601884147364 0.5593901217632046
O -0.9457121259905154 -0.8146391554546699 -0.1240035379319727 -0.9963138680841535
N 0.7234850915228925 0.8861587093127786 -0.1074258740891510 0.9989733053171830
O 0.6954898756724499 0.9827531112448843 -0.1236355979289287 -0.8354521971080898
N 0.5066623548507146 1.7357652571595978 -0.0340172696055664 0.2899344186932475
O 0.5172818590417315 1.3486078363272496 -0.0252094880961817 -0.8678253524624289
N 0.5333987484029218 -0.4057786324561466 -0.1077713380854293 0.9219570073558310
O 0.6521108231319501 -0.2294632592937279 -0.2680008947394201 -0.9704818863270434
O 0.7740721694254727 -0.2480929599784934 0.3955048551127396 -0.3320651923316272
N 0.6025736040263971 0.3435690813250185 -0.0397118604529310 0.9769593393400061
O 1.5470103451344137 -0.5449426002362118 -0.4766319437311939 -0.1970026432733326
O 1.4908470994435623 -0.5042541892023924 0.5257331925931619 -0.1946060569702309
N 2.7680074894734821 0.0197029264227915 0.1067734403564973 0.1283355164991325
N 1.7236995476033778 -1.8936010905837790 0.0576921618905597 0.1235072004109040
