21
s                      x[A]                      y[A]                      z[A]                      q[e]
N -2.0935498523048550 1.5934869898229431 -0.2305921364508211 0.0690680479201058
O -1.8688026933398980 -0.2292324026954308 0.3637029220716762 -0.3117950550350966
N -1.9787372206673992 -0.3586499427112441 0.0203024738766054 0.5776243102962968
N -3.3190730154743591 -0.5572566084561820 0.0047971750271568 0.0604184539076988
O -1.8339329985823276 -0.3261454545864432 -0.3008638297243980 -0.3968494342195521
O -0.9267356919688781 -0.1324564832037814 0.1386032762788035 -0.9828651838991298
N -0.7631156373695613 0.0119358789769889 0.1284526487254412 0.7759263489545838
N -0.9992850669863700 -1.3739129961854839 0.1612887104865929 0.9970342621901004
O -0.9977348405436381 -1.4073812673630384 -0.1174195023294429 -0.3970377457969525
O -1.0561165029841366 -1.3563883159443881 0.4292048217028247 -0.3893757401670396
N 1.7780912124715980 -1.2640488771383778 -0.1501577532500331 0.1691966627363242
O 1.4602536406878126 -0.9431238864116308 -0.0913231711664536 -0.6800109224217911
O 0.3668227190488733 0.4178589363396400 -0.3309054157328702 -0.9821368279659007
N 0.2191009206952842 0.4928900514260390 -0.2023927732626296 0.8921713087406896
O 0.5832902735893315 0.4843090925978257 0.3322230596419237 -0.3335771210350215
N 0.7809602213841014 -0.1186451790111820 -0.0845086692238062 0.9988617281482304
N 2.2929984246953090 1.6806660691611897 -0.0158098986291044 0.0655379221577991
N 1.0885973069361319 1.0851085177234872 0.0255785568603893 0.9908754307264420
O 0.9434276131762713 1.0800684465969344 -0.3222002841565585 -0.6595771554465193
O 1.0305447213747780 1.1158789984332445 0.3931885821058861 -0.5578053818499882
N -0.1510817940589941 2.2556843604504668 0.0550011398302664 0.0943160920587207
