25
s                      x[A]                      y[A]                      z[A]                      q[e]
N 1.4490394875967691 0.0037711352408163 -0.0780406256803494 0.1158659338886357
O 0.2464631139680921 -0.4393297905501462 0.2290078047638885 -0.2341991647481463
N -0.8528722159279455 -0.0062136493675208 0.2335888240609328 0.0569852111266852
N -0.1003306307746022 0.0319675289480045 0.3773727010645730 0.3189271149812888
O 0.1795387311926835 0.3398839714887441 0.2595154282319387 -0.2877498234141676
N -0.0268991953957924 0.1138044030976749 -0.5380385471689457 0.5692545008206258
O 0.2916823850999221 0.4964077964087398 -0.4680385466808556 -0.2058946535748549
O 0.2739665613129067 0.1686487067730726 -0.5822277442978905 -0.9992971180892700
N 0.1195766449525638 0.0197084488856999 -0.3605179201899744 0.6691943173322236
N 1.0580934794446462 0.0206520122288842 -0.3501588656168360 0.0628076875181509
N -1.0162096769978015 -0.0031114773765463 0.3266720707989180 0.7576134719858190
O -0.9921869942127253 0.0735576675116289 -0.0279737845703303 -0.9235083265987739
N -1.1060981279565143 0.0119944731306135 -0.4404688953818766 0.9955526175656415
O -1.0150966063530955 -0.0533938393640851 0.1269407657223196 -0.9936641819349231
O -0.3171012965834287 -0.1181865458190658 0.5002832953207054 -0.9934394819660318
N -0.7000244813359447 0.0546036018517803 0.6680824771310102 0.8475065253219278
N -0.0500385142775121 -0.0178579743995629 0.3981106594125509 0.9207393412409772
O -0.3155534402220534 0.2549833468232838 0.2750670350815360 -0.6738758902636315
N -0.4471444686989791 0.0227769648080992 0.3090205189590413 0.1207489421105395
N -0.1512228100387592 0.0767458480823477 -0.3354259000438138 0.4308753055723465
O -0.0866887276577261 0.2115341195227987 0.6680444691068737 -0.7095764258838037
N 0.0260905521152256 0.0084138094836332 0.4338457198160236 0.9977500474782615
O -0.1275671671652845 -0.1265420887018544 0.5762424870339198 -0.9963537733476465
O -1.0541476479632352 0.3704915468579243 0.0829595661277399 -0.1586318904925156
N -1.0464352756754702 0.2018620874520747 0.0346074120509715 0.3123697133706422
