25
s                      x[A]                      y[A]                      z[A]                      q[e]
N        2.3451885566058852       -0.2574808321624026       -0.4680782497959721        0.1158659338886357
O        1.4546555838577635        0.9341447534464659        0.3920070427344397       -0.2341991647481463
N        2.3787690133369708        2.1323779990794729       -0.1451646554872146        0.0569852111266852
N        1.4754313024242818        1.3419272642801221       -0.0527187712437018        0.3189271149812888
O        1.2920336599722244        1.0947393985958849       -0.3565201102184461       -0.2877498234141676
N        0.5696068213634090        1.2312097987807111        0.0789848062729046        0.5692545008206258
O        0.6001284377179400        0.5828242540721311        0.5782811520340652       -0.2058946535748549
O        0.5202065021468477        0.9368074491297960       -0.0016073346067009       -0.9992971180892700
N        0.3881646528453326        0.4243060617674947        0.1328286508134543        0.6691943173322236
N       -0.4689291054113519        1.8770737414462670        0.5199419788917062        0.0628076875181509
N        0.5534166709667309       -1.9527029091604466       -0.0701971844880583        0.7576134719858190
O        0.4098952989740893       -1.6480127568628018        0.0667171059335746       -0.9235083265987739
N        0.0861689141278840       -1.3641501519938994        0.1088856928229380        0.9955526175656415
O        0.4377446102848908       -1.7827631253397032       -0.0805965369047142       -0.9936641819349231
O       -0.4169361856304898       -0.4455584791865075        0.1655690698348558       -0.9934394819660318
N       -0.1411128957571850       -0.7939941366237682        0.2485668770416285        0.8475065253219278
N       -0.5364710340977785       -0.2111006370928393        0.3162089131954556        0.9207393412409772
O       -0.5300032544579704       -0.5108224260185330        0.5814169786937957       -0.6738758902636315
N       -2.8517111667338839        0.1405359391433977       -0.4547971390488710        0.1207489421105395
N       -1.1855261902806158       -0.4671448653044536        0.5814112911249167        0.4308753055723465
O       -1.5174618489186997        0.0726376237948904        0.2444175968252818       -0.7095764258838037
N       -1.6137590073015233        0.0269754431943698       -0.0679750686557712        0.9977500474782615
O       -1.5817769950568021       -0.2001579244969483        0.0303110306015213       -0.9963537733476465
O       -2.1333167899950656       -0.6193408932528675        1.4394887421410172       -0.1586318904925156
N       -2.1035323985534946       -0.7304571457037209        1.3068475487332829        0.3123697133706422

        RMSE         3.511000880E+00 kcal/mol

Coordinates in bohr
s                   x[bohr]                   y[bohr]                   z[bohr]                      q[e]
+        4.4317640845428761       -0.4865682553419144       -0.8845396973980237        0.1158659338886357
-        2.7489006603591264        1.7652777455471480        0.7407859500187340       -0.2341991647481463
+        4.4952219509324145        4.0296104142119686       -0.2743214419672744        0.0569852111266852
+        2.7881610785094351        2.5358750097742981       -0.0996240393212582        0.3189271149812888
-        2.4415897622204086        2.0687576420946345       -0.6737253665309020       -0.2877498234141676
+        1.0764008915694241        2.3266493226755856        0.1492596519281331        0.5692545008206258
-        1.1340783873857823        1.1013782194705772        1.0927930008586233       -0.2058946535748549
-        0.9830478177399320        1.7703095111440807       -0.0030374221986351       -0.9992971180892700
+        0.7335248854610934        0.8018222501121577        0.2510097716514998        0.6691943173322236
+       -0.8861475814833996        3.5471552886218833        0.9825479412338999        0.0628076875181509
+        1.0458059413897300       -3.6900737026980002       -0.1326534534606667        0.7576134719858190
-        0.7745898551736839       -3.1142927617314164        0.1260770580976133       -0.9235083265987739
+        0.1628356482297945       -2.5778701812701388        0.2057641384160819        0.9955526175656415
-        0.8272174263337135       -3.3689340534572856       -0.1523053814102645       -0.9936641819349231
-       -0.7878952026346713       -0.8419834985380013        0.3128801968346787       -0.9934394819660318
+       -0.2666647257513596       -1.5004314634382669        0.4697233214690290        0.8475065253219278
+       -1.0137833286859494       -0.3989223890151303        0.5975482443680791        0.9207393412409772
-       -1.0015609965268997       -0.9653144839169705        1.0987188544224231       -0.6738758902636315
+       -5.3889530940368449        0.2655744357650300       -0.8594420354441281        0.1207489421105395
+       -2.2403198141877678       -0.8827758563393041        1.0987081064749222        0.4308753055723465
-       -2.8675873002872065        0.1372652153763816        0.4618823182423534       -0.7095764258838037
+       -3.0495625562905788        0.0509761997502042       -0.1284542631186003        0.9977500474782615
-       -2.9891253122070167       -0.3782436591392986        0.0572795464172465       -0.9963537733476465
-       -4.0313844719315064       -1.1703846665443316        2.7202394833263073       -0.1586318904925156
+       -3.9751001292935073       -1.3803639517636768        2.4695839548318070        0.3123697133706422
