25
s                      x[A]                      y[A]                      z[A]                      q[e]
N        1.7616038552976965        0.8262864654651182       -1.4106572185382025        0.1158659338886357
O        1.7821181574961087       -0.3922321098256521       -0.2575746770745558       -0.2341991647481463
N        3.3797665048773946       -0.1872942863163025        0.0315755948225648        0.0569852111266852
N        2.1783688533179153       -0.1540795827037258        0.1020982373308230        0.3189271149812888
O        1.9296949916174431        0.2290668670775336        0.2109500693654651       -0.2877498234141676
N        1.4728710155151021       -0.3396574802929165        0.4823686193407178        0.5692545008206258
O        0.7100143993693893       -0.4121710068837965        0.8761409567686150       -0.2058946535748549
O        1.2033971888128714       -0.3453574969465062        0.3301674095057158       -0.9992971180892700
N        0.6492778959261023       -0.3866548705857445        0.3825576659604600        0.6691943173322236
N        1.0743721967538429       -1.0747021569912352        1.6499561662071007        0.0628076875181509
N       -1.3991431649499000       -1.3243642883635875       -0.2742206561741671        0.7576134719858190
O       -1.2249358351923676       -1.0583153351868688       -0.1264094388703367       -0.9235083265987739
N       -1.0404118930129809       -0.6613183471494533       -0.1227899002894613        0.9955526175656415
O       -1.2961225793189313       -1.1592285814517169       -0.2807815702120862       -0.9936641819349231
O       -0.3420058435647009        0.1468843936925598       -0.0103069274830508       -0.9934394819660318
N       -0.6131674830958717       -0.2061605036900118        0.0677399783329115        0.8475065253219278
N       -0.1967287747899086        0.3428173112223735        0.1440112526234850        0.9207393412409772
O       -0.5497899109294896        0.3214358308021386        0.3205516744513991       -0.6738758902636315
N       -2.3846143896561434        1.3505799160984087       -0.2271648027608132        0.1207489421105395
N       -0.6725979925223133        0.9187059545287464        0.2125668645489464        0.4308753055723465
O       -0.9497368465910238        0.8903700003002193       -0.1582903639769717       -0.7095764258838037
N       -1.2227402452869509        0.7784385292551325       -0.0335360664920494        0.9977500474782615
O       -1.1180161252030003        0.8980202218936743        0.1442712640398309       -0.9963537733476465
O       -0.4554382005574352        2.3106668240098811       -0.0239720354633741       -0.1586318904925156
N       -0.5371735708281119        2.2474024972850688        0.1240869403815779        0.3123697133706422

        RMSE         6.010545948E-01 kcal/mol

Coordinates in bohr
s                   x[bohr]                   y[bohr]                   z[bohr]                      q[e]
+        3.3289488280632886        1.5614551209016414       -2.6657557999373140        0.1158659338886357
-        3.3677152408731650       -0.7412112651809789       -0.4867455965241516       -0.2341991647481463
+        6.3868330622141052       -0.3539349060008956        0.0596692264630717        0.0569852111266852
+        4.1165205329984760       -0.2911682128348707        0.1929377064472500        0.3189271149812888
-        3.6465950398246068        0.4328736431931909        0.3986378572470605       -0.2877498234141676
+        2.7833228374484906       -0.6418596142167017        0.9115445820691767        0.5692545008206258
-        1.3417327599395830       -0.7788903198645686        1.6556664555892695       -0.2058946535748549
-        2.2740911070021901       -0.6526310846025349        0.6239259795176844       -0.9992971180892700
+        1.2269574026138443       -0.7306718104813970        0.7229292158596502        0.6691943173322236
+        2.0302692086712550       -2.0308927431522172        3.1179652731417966        0.0628076875181509
+       -2.6439973920615776       -2.5026857953440360       -0.5182019381125121        0.7576134719858190
-       -2.3147932497725217       -1.9999261378752842       -0.2388792191377396       -0.9235083265987739
+       -1.9660935354636646       -1.2497105578529113       -0.2320392825193567        0.9955526175656415
-       -2.4493166999347706       -2.1906245357467276       -0.5306002687768508       -0.9936641819349231
-       -0.6462973776434584        0.2775712761828634       -0.0194772701379204       -0.9934394819660318
+       -1.1587186120874899       -0.3895868898605603        0.1280100067936500        0.8475065253219278
+       -0.3717635053497996        0.6478308292761263        0.2721418264425069        0.9207393412409772
-       -1.0389523581965887        0.6074256871250433        0.6057548737700615       -0.6738758902636315
+       -4.5062681112758876        2.5522261519698044       -0.4292792625615833        0.1207489421105395
+       -1.2710259983999044        1.7361026438866436        0.4016931573447995        0.4308753055723465
-       -1.7947425313129910        1.6825554508912186       -0.2991254362155120       -0.7095764258838037
+       -2.3106441861674640        1.4710356257963917       -0.0633739809951167        0.9977500474782615
-       -2.1127442804792400        1.6970122745019121        0.2726331768088929       -0.9963537733476465
-       -0.8606534661248874        4.3665274645601375       -0.0453005816955396       -0.1586318904925156
+       -1.0151109306993542        4.2469752135387600        0.2344903330671957        0.3123697133706422
