21
s                      x[A]                      y[A]                      z[A]                      q[e]
N -1.9286384402942882 1.1569956620503727 -1.4267836924339352 0.0707249461841811
O -1.7448763780680225 0.3508699375696421 -0.0339088700393467 -0.3496602100029151
N -1.5358554703970400 0.1871749325960053 -0.5123341484903081 0.9824851761690530
N -3.1794339157857285 -0.2077765684822560 0.0397134223769577 0.1071394941056757
O -1.5817823380841753 0.0079590059682243 -0.5492127831383448 -0.8194842575378962
N -0.5195508624125196 -0.6210378279768619 -0.1601663644903358 0.3116552922920345
N -1.0508420240092322 -1.2336850795365404 1.2158582885013560 0.0918298459672651
N -1.2771460172091538 -0.9873743546577654 -0.0785270140134674 0.5593901217632046
O -0.9786849311701775 -0.7957610648736972 -0.0858819395881380 -0.9963138680841535
N 0.7187569184289357 0.8894982537753109 0.0818702436798671 0.9989733053171830
O 0.6925334723348125 0.9869731181965925 0.0909877733376728 -0.8354521971080898
N 0.5394225826217797 1.7017967066919839 0.3666591648890232 0.2899344186932475
O 0.5391985233810037 1.3226484164138153 0.2889006127216596 -0.8678253524624289
N 0.5109230771353852 -0.3834199303036337 -0.1515425726639778 0.9219570073558310
O 0.6160263643502946 -0.1808930547137690 -0.2880816621364494 -0.9704818863270434
O 0.8030074107503514 -0.3194300243066846 0.3454303751875798 -0.3320651923316272
N 0.5970274235288066 0.3412849122174647 0.0442827200012875 0.9769593393400061
O 1.4554556572282578 -0.4153072113939148 -0.6957996360763683 -0.1970026432733326
O 1.5444654323424352 -0.6081538590453204 0.2863119902115603 -0.1946060569702309
N 2.7541045392124586 0.0268824107184519 -0.1776822378865271 0.1283355164991325
N 1.6909326689698019 -1.8460417486862690 -0.5187152511991373 0.1235072004109040
