21
s                      x[A]                      y[A]                      z[A]                      q[e]
N 0.0373075050027595 0.7216597557371027 0.4069854279616720 0.0707249461841811
O 0.2926337871674820 0.1755521020899506 0.1286035350447563 -0.3496602100029151
N 0.4108341974530115 -0.3418880083068314 0.2614979921101243 0.9824851761690530
N -0.2108627486189550 -0.0812001824857516 -0.1348403266222242 0.1071394941056757
O 0.2541693207411776 -0.4407994615275479 0.2969986970713094 -0.8194842575378962
N -0.2622245021649225 -0.2975908305936182 0.3147189266294121 0.3116552922920345
N -0.1095242655000264 0.6830957099250523 -0.0275145464159418 0.0918298459672651
N -0.3141187234918685 -0.2996213106133445 -0.5291535280946470 0.5593901217632046
O -0.2475097158173395 -0.2767181876649866 -0.1814647956233827 -0.9963138680841535
N 0.3637043392786949 -0.0135802710842002 -0.2604029824448997 0.9989733053171830
O 0.2625177989095823 -0.0093647821721826 -0.2643604270019582 -0.8354521971080898
N 0.0068758407775959 -0.1899166031163999 0.5081514297927865 0.2899344186932475
O -0.1204426252274074 -0.1486071960399135 -0.3608584483393142 -0.8678253524624289
N -0.2581665443798164 -0.1629238885910290 0.3504853372445976 0.9219570073558310
O -0.0340930829497841 -0.2943977466210360 0.2938067009606042 -0.9704818863270434
O -0.0342411400708391 0.3647994133504419 0.4385512602915771 -0.3320651923316272
N 0.2926524951352572 0.0049449701842941 -0.1387763968507305 0.9769593393400061
O 0.4334645079053330 -0.5729850917998232 -0.2796022305750577 -0.1970026432733326
O 0.3037525495598998 0.4208299122375974 -0.2077526538297741 -0.1946060569702309
N 1.6422824471374240 0.0913124552466680 0.2183276617475453 0.1283355164991325
N -0.3967483131240074 -0.2921123482286363 0.8890152399192612 0.1235072004109040
