21
s                      x[A]                      y[A]                      z[A]                      q[e]
N       -1.9712238581120478        1.4556333372516916       -0.7213074811260299        0.0707249461841811
O       -1.6956027478116023        0.1571323435732263        0.1757071787801744       -0.3496602100029151
N       -1.5218451007654283        0.1951468069027420       -0.3417285391873298        0.9824851761690530
N       -3.1130894981084918       -0.4557787664925566        0.0811888123311668        0.1071394941056757
O       -1.5677060553724984        0.0412211455982061       -0.4406796526757529       -0.8194842575378962
N       -0.6184203920851988       -0.3162734704560113        0.2974792692597777        0.3116552922920345
N       -0.8736781412770716       -1.7499060183656630        0.6827134194035029        0.0918298459672651
N       -1.3999898791750434       -0.6387067689357752        0.2994177686347248        0.5593901217632046
O       -1.0581853321825287       -0.5465334224213042        0.2765596523691037       -0.9963138680841535
N        1.2946908777648940       -0.4870317577210618       -0.0134640852824023        0.9989733053171830
O        1.3445218696276182       -0.5751870906558099       -0.0092620392093063       -0.8354521971080898
N        1.7283028829665636       -1.2319369129377395       -0.1899138814568846        0.2899344186932475
O        1.4637736436178665       -0.9516619355228776       -0.1485628287957850       -0.8678253524624289
N        0.2523924471864785        0.2888054228360248        0.1628907419695846        0.9219570073558310
O        0.4780717651662234        0.2390101940937197        0.2944051514623947       -0.9704818863270434
O        0.4736069097719931        0.3836181612934622       -0.3648068826965378       -0.3320651923316272
N        0.8179250011654497       -0.1834202699314739       -0.0048424925699156        0.9769593393400061
O        0.9213250632918054        1.0400826520016642        0.5729841443694724       -0.1970026432733326
O        0.7896361547371510        1.1078394943285750       -0.4208583269245209       -0.1946060569702309
N        2.1144752481639855        1.5746372745061779       -0.0911771393472488        0.1283355164991325
N        0.0558498194738361        2.1827693826683072        0.2918627177157095        0.1235072004109040

        RMSE         1.534824944E+00 kcal/mol

Coordinates in bohr
s                   x[bohr]                   y[bohr]                   z[bohr]                      q[e]
+       -3.7250732238001119        2.7507483464918874       -1.3630735915720380        0.0707249461841811
-       -3.2042248109376659        0.2969370948047411        0.3320384461713849       -0.3496602100029151
+       -2.8758704458164308        0.3687740193037856       -0.6457733483168363        0.9824851761690530
+       -5.8828865554640153       -0.8612970424699272        0.1534246197570985        0.1071394941056757
-       -2.9625350898758467        0.0778966757582310       -0.8327638526190519       -0.8194842575378962
+       -1.1686451714392738       -0.5976702399099391        0.5621543469023057        0.3116552922920345
+       -1.6510124088127174       -3.3068431200014792        1.2901413848474468        0.0918298459672651
+       -2.6455974500536277       -1.2069808677646907        0.5658175798153269        0.5593901217632046
-       -1.9996804678015949       -1.0327984867854176        0.5226220003294303       -0.9963138680841535
+        2.4466111761042479       -0.9203566364931378       -0.0254434337135479        0.9989733053171830
-        2.5407781032847141       -1.0869460722383641       -0.0175027174688408       -0.8354521971080898
+        3.2660191106459986       -2.3280233692943124       -0.3588852233761757        0.2899344186932475
-        2.7661312961012787       -1.7983804221613449       -0.2807430588473135       -0.8678253524624289
+        0.4769526013165236        0.5457631527071308        0.3078188906951339        0.9219570073558310
-        0.9034247044783521        0.4516638080296485        0.5563451061878562       -0.9704818863270434
-        0.8949873505934838        0.7249332615963505       -0.6893850969784767       -0.3320651923316272
+        1.5456542433674749       -0.3466140760280331       -0.0091509847217049        0.9769593393400061
-        1.7410520421416118        1.9654713601230076        1.0827831070880920       -0.1970026432733326
-        1.4921960712128544        2.0935132352466974       -0.7953069755057388       -0.1946060569702309
+        3.9957791180894078        2.9756331957540341       -0.1722998222690051        0.1283355164991325
+        0.1055408629618114        4.1248363282777554        0.5515406027144996        0.1235072004109040
