21
s                      x[A]                      y[A]                      z[A]                      q[e]
N -1.9240696556447654 1.4554221346216412 -0.2951442667741876 0.0707249461841811
O -1.6270272123919876 0.0207345133970538 0.3117666304667353 -0.3496602100029151
N -1.4860006253303124 0.1342192141214206 -0.2047706018267915 0.9824851761690530
N -3.0520138786606017 -0.5924300435589296 0.1578354075156200 0.1071394941056757
O -1.5407127105172069 -0.0036855643139480 -0.3220203469562804 -0.8194842575378962
N -0.5344288337680576 -0.5759359332906372 -0.0770085282477241 0.3116552922920345
N -0.8908675470085157 -1.9087192315978345 0.0991959108107587 0.0918298459672651
N -1.3206879530285067 -0.8667065690557860 0.0327053277607467 0.5593901217632046
O -1.0091830900956376 -0.6998728917395786 0.0022954366346685 -0.9963138680841535
N 0.7836703479025419 0.8608112024814212 -0.1306191123223905 0.9989733053171830
O 0.7618514188724236 0.9580892454246243 -0.1516588115026893 -0.8354521971080898
N 0.6290290415182664 1.7267065572691609 -0.1010679748317122 0.2899344186932475
O 0.6132929195937128 1.3408653743310239 -0.0694182012647661 -0.8678253524624289
N 0.5023315718476588 -0.4087060983656657 -0.0513887100400266 0.9219570073558310
O 0.6279190138930990 -0.2491685812758510 -0.2236443122546247 -0.9704818863270434
O 0.7720407482884393 -0.2471973901845791 0.4357838126764010 -0.3320651923316272
N 0.6291552079949505 0.3356310555970963 -0.0211646709283705 0.9769593393400061
O 1.4717087872005958 -0.6398535916502971 -0.4888200820537270 -0.1970026432733326
O 1.4879315119457495 -0.5572106626050959 0.5124609418737691 -0.1946060569702309
N 2.7704739615514105 -0.1436532563426898 -0.0148397026457838 0.1283355164991325
N 1.5817692508499148 -1.9772154251452754 0.0900294882940750 0.1235072004109040
