21
s                      x[A]                      y[A]                      z[A]                      q[e]
N 0.2189254165634577 1.3167157074222064 -0.0674551544064069 0.0707249461841811
O -0.3034143944934762 0.0093946936391719 0.6625972474694666 -0.3496602100029151
N 0.1953824697457122 0.0166208447875427 0.4373696761844356 0.9824851761690530
N 0.1995655056768368 0.6072648171630848 -0.1661242627172826 0.1071394941056757
O 0.2249573161438081 -0.1380979109252320 0.3327461701977025 -0.8194842575378962
N -0.6103865547176355 -0.4254595701677493 0.5205663177550259 0.3116552922920345
N -1.9303955694462034 -0.3274775000106511 0.0935023929731672 0.0918298459672651
N -0.8836494003590498 -0.5432948710383588 -0.2707808592187869 0.5593901217632046
O -0.7233693379630357 -0.4854408921618323 0.0402765884053751 -0.9963138680841535
N 0.2996300961784588 0.1923743284006530 -0.4442084946200256 0.9989733053171830
O 0.2065865105353579 0.2246357591335462 -0.4703588961890290 -0.8354521971080898
N 0.3440632854487626 0.2602346898090929 0.2699799863724504 0.2899344186932475
O -0.1577615997493952 0.2080967560796944 -0.6760956854386219 -0.8678253524624289
N -0.1443973760007388 -0.1018138271112447 0.4384863294703789 0.9219570073558310
O 0.0742432528619534 -0.2337705725158069 0.3631198236088517 -0.9704818863270434
O 0.0311768524798326 0.4386922306558257 0.3236296301658620 -0.3320651923316272
N 0.2558389051790944 -0.0547199904752723 -0.2007543261308352 0.9769593393400061
O 0.7298010068729434 -0.2303887191554436 -0.2946187032067958 -0.1970026432733326
O 0.5178345179185260 0.7293665110260151 -0.5034172307310444 -0.1946060569702309
N 1.0477496418808818 -0.4874212776105532 0.4603433553414109 0.1283355164991325
N 0.1441855069304651 0.3891109404237245 0.8923907586122767 0.1235072004109040
