21
s                      x[A]                      y[A]                      z[A]                      q[e]
N       -1.7515368510328024        0.7439137324089773       -1.6304648033819438        0.0707249461841811
O       -1.6710223762728289        0.3792064306183276       -0.0761682455820160       -0.3496602100029151
N       -1.4648770852746216        0.0516601834592052       -0.4632025630184157        0.9824851761690530
N       -3.1385897979960524       -0.0698907739496379        0.1103480168606551        0.1071394941056757
O       -1.5198947303602801       -0.1273668908305575       -0.4371064270168440       -0.8194842575378962
N       -0.6134288661254148       -0.0007023831790192        0.5215530886824203        0.3116552922920345
N       -1.0718080589892189       -0.7089519391202952        1.6631032683070819        0.0918298459672651
N       -1.4386634117574653       -0.1057134577961296        0.6723798580138503        0.5593901217632046
O       -1.0939395278296391       -0.1084107566308773        0.5890030901184422       -0.9963138680841535
N        1.1251173114964044       -0.6789669187887061       -0.0742560031544491        0.9989733053171830
O        1.1511006047932058       -0.7774174568494026       -0.0704993730834645       -0.8354521971080898
N        1.3210587004874443       -1.5175406529395841       -0.2550577168826147        0.2899344186932475
O        1.1463280808697442       -1.1770163167902319       -0.1955940759697443       -0.8678253524624289
N        0.3562475005334333        0.3494660662456630        0.1996521470665411        0.9219570073558310
O        0.5814163001538227        0.2469325531858079        0.2980508657072380       -0.9704818863270434
O        0.4997408457962982        0.3624161303349328       -0.3619590398501118       -0.3320651923316272
N        0.7477600940450917       -0.2599939549289896       -0.0155498457374178        0.9769593393400061
O        1.2360338158104238        0.9042085195582868        0.5185029296110464       -0.1970026432733326
O        1.0061009831171450        0.9776821349589682       -0.4568889094394042       -0.1946060569702309
N        2.4361088548587579        1.1021684341996041       -0.3023581777390942        0.1283355164991325
N        0.6518964078724621        2.2203400194007186        0.2726105785373264        0.1235072004109040

        RMSE         1.510232084E+00 kcal/mol

Coordinates in bohr
s                   x[bohr]                   y[bohr]                   z[bohr]                      q[e]
+       -3.3099249470988230        1.4057932152200883       -3.0811319355903204        0.0707249461841811
-       -3.1577746406673861        0.7165962988810649       -0.1439371236066234       -0.3496602100029151
+       -2.7682164986279671        0.0976235983288044       -0.8753259847149262        0.9824851761690530
+       -5.9310751383685476       -0.1320744214610981        0.2085275303540408        0.1071394941056757
-       -2.8721847799075024       -0.2406885411208396       -0.8260114347392555       -0.8194842575378962
+       -1.1592125544271690       -0.0013273118434747        0.9855924974963932        0.3116552922920345
+       -2.0254236905481720       -1.3397250010496096        3.1428096954541926        0.0918298459672651
+       -2.7186798349383747       -0.1997694830098296        1.2706137839203979        0.5593901217632046
-       -2.0672461054106699       -0.2048666390860193        1.1130545273722119       -0.9963138680841535
+        2.1261635777396286       -1.2830615247566215       -0.1403235091330413        0.9989733053171830
-        2.1752648859080272       -1.4691060785952998       -0.1332245071442213       -0.8354521971080898
+        2.4964391395744916       -2.8677362183042630       -0.4819892310927031        0.2899344186932475
-        2.1662461227654899       -2.2242384839286484       -0.3696192353448089       -0.8678253524624289
+        0.6732102088870805        0.6603951553454055        0.3772878783153912        0.9219570073558310
-        1.0987175721677092        0.4666348969812258        0.5632345076422903       -0.9704818863270434
-        0.9443733322596567        0.6848672297812518       -0.6840034539503874       -0.3320651923316272
+        1.4130617852918124       -0.4913173690904167       -0.0293849497368375        0.9769593393400061
-        2.3357653936862870        1.7087064622708403        0.9798285322124156       -0.1970026432733326
-        1.9012553126452743        1.8475514728253484       -0.8633949085995778       -0.1946060569702309
+        4.6035785474857471        2.0827964847619391       -0.5713741477193878        0.1283355164991325
+        1.2319056730487037        4.1958345420610792        0.5151593323381588        0.1235072004109040
