21
s                      x[A]                      y[A]                      z[A]                      q[e]
N       -1.8733456715155155        1.2829002790849666       -1.1152944168374435        0.0707249461841811
O       -1.6965193835015138        0.2550146944091677        0.0927953325666580       -0.3496602100029151
N       -1.4962845017106492        0.1415971533644495       -0.4066946504431204        0.9824851761690530
N       -3.1325511611851371       -0.3288286039656500        0.0866624544975767        0.1071394941056757
O       -1.5414675159734463       -0.0057626129326453       -0.4686203000966595       -0.8194842575378962
N       -0.6194780373518558       -0.2477920190457696        0.4058801627727480        0.3116552922920345
N       -0.9541974931392941       -1.5064857346832807        1.0910516033717010        0.0918298459672651
N       -1.4175440169450557       -0.5160101058116991        0.4747585442598842        0.5593901217632046
O       -1.0746186143747416       -0.4277509530835027        0.4094352070216259       -0.9963138680841535
N        1.2496599541204156       -0.5529653463198149       -0.0607686472937196        0.9989733053171830
O        1.2962341150063525       -0.6310421663427096       -0.0688073558583026       -0.8354521971080898
N        1.6167043498400475       -1.3232707755409738       -0.2666027927334003        0.2899344186932475
O        1.3779425339102473       -1.0149006075025158       -0.2138057863009284       -0.8678253524624289
N        0.2810709915685474        0.2945613767327502        0.1948007609696992        0.9219570073558310
O        0.5123132254302707        0.2452586361225774        0.2965737244646439       -0.9704818863270434
O        0.4633614757795953        0.3861549732658473       -0.3590336884717698       -0.3320651923316272
N        0.7958010535145635       -0.2149392838382069       -0.0142391487905161        0.9769593393400061
O        1.0279330541727003        1.0005439476057618        0.5817100023082706       -0.1970026432733326
O        0.8368410839492080        1.0953426594394520       -0.4006803136686369       -0.1946060569702309
N        2.2114185167168103        1.4660722534214268       -0.1481216275268962        0.1283355164991325
N        0.2219718633821061        2.1977893877944403        0.3781642549376006        0.1235072004109040

        RMSE         6.331334566E-01 kcal/mol

Coordinates in bohr
s                   x[bohr]                   y[bohr]                   z[bohr]                      q[e]
+       -3.5401102574762082        2.4243301737440004       -2.1076009970749698        0.0707249461841811
-       -3.2059570013484189        0.4819079304006486        0.1753577642717613       -0.3496602100029151
+       -2.8275679140002623        0.2675798400032590       -0.7685415060263037        0.9824851761690530
+       -5.9196637686248099       -0.6213960037117144        0.1637683043603710        0.1071394941056757
-       -2.9129514364796036       -0.0108897602097210       -0.8855640240125451       -0.8194842575378962
+       -1.1706438313311422       -0.4682590520707346        0.7670023473967377        0.3116552922920345
+       -1.8031719316316910       -2.8468454504605258        2.0617887191141557        0.0918298459672651
+       -2.6787699628075061       -0.9751177779526261        0.8971636243722299        0.5593901217632046
-       -2.0307348704872403       -0.8083321512313809        0.7737204073910010       -0.9963138680841535
+        2.3615150632397803       -1.0449530614133899       -0.1148361003996741        0.9989733053171830
-        2.4495274718372113       -1.1924968680033230       -0.1300270579891082       -0.8354521971080898
+        3.0551284470340501       -2.5006193555946199       -0.5038062625483249        0.2899344186932475
-        2.6039340057097538       -1.9178841927405250       -0.4040343801469179       -0.8678253524624289
+        0.5311471958754210        0.5566403291627038        0.3681200872635061        0.9219570073558310
-        0.9681316865131484        0.4634716521749895        0.5604431152451691       -0.9704818863270434
-        0.8756262863113959        0.7297271414559409       -0.6784753410245905       -0.3320651923316272
+        1.5038460414933339       -0.4061763800562552       -0.0269080914737195        0.9769593393400061
-        1.9425119476918087        1.8907540374593166        1.0992725888020725       -0.1970026432733326
-        1.5814004591952660        2.0698976398711890       -0.7571760566962605       -0.1946060569702309
+        4.1789753453609553        2.7704750390993000       -0.2799093092829092        0.1283355164991325
+        0.4194660293497217        4.1532200243691202        0.7146268722698783        0.1235072004109040
