21
s                      x[A]                      y[A]                      z[A]                      q[e]
N -1.8734589358500828 1.2831659703756624 -1.1154169528632301 0.0707249461841811
O -1.6960707690425481 0.2542801483929475 0.0930747782943750 -0.3496602100029151
N -1.4969229592369639 0.1424625416691064 -0.4071679771820450 0.9824851761690530
N -3.1327632012705542 -0.3284753800741001 0.0865409112193269 0.1071394941056757
O -1.5409750044348258 -0.0066165290372156 -0.4683283189876505 -0.8194842575378962
N -0.6198349874693576 -0.2470261891600035 0.4056850087664310 0.3116552922920345
N -0.9542735535067723 -1.5060373516062155 1.0909209971505180 0.0918298459672651
N -1.4180200126569797 -0.5150626758743464 0.4744984784924746 0.5593901217632046
O -1.0742076685713893 -0.4287862998737108 0.4098032952347549 -0.9963138680841535
N 1.2496593635665758 -0.5526498736850808 -0.0606695813159732 0.9989733053171830
O 1.2965372276059746 -0.6315257752238004 -0.0689072629109760 -0.8354521971080898
N 1.6167814789478845 -1.3231224956362166 -0.2665077072696097 0.2899344186932475
O 1.3781492403901083 -1.0153893113015418 -0.2139284217042308 -0.8678253524624289
N 0.2806169645517628 0.2951927482706031 0.1947189411718700 0.9219570073558310
O 0.5128069545552923 0.2446837615996353 0.2966959939722006 -0.9704818863270434
O 0.4639054925390403 0.3856930809454612 -0.3589994309504259 -0.3320651923316272
N 0.7955800507490589 -0.2144491788572092 -0.0142587389161126 0.9769593393400061
O 1.0282499852858153 1.0003815882572118 0.5817275015080119 -0.1970026432733326
O 0.8373233522188825 1.0951015643113622 -0.4006759891619238 -0.1946060569702309
N 2.2112235812708256 1.4661424946737946 -0.1480624801215931 0.1283355164991325
N 0.2215698421865213 2.1979064281422249 0.3780503783876373 0.1235072004109040
