21
s                      x[A]                      y[A]                      z[A]                      q[e]
N        1.7045237270696405        0.0502386897767267       -1.7852681875246568        0.0707249461841811
O        1.6346766527082370       -0.3834059340019214       -0.2677792386371515       -0.3496602100029151
N        1.4454741448915067        0.1080377600635950       -0.4055654190463508        0.9824851761690530
N        3.1269121467775478       -0.1719581409867763        0.0965177277240726        0.1071394941056757
O        1.5327136200743854        0.2455887543993404       -0.3076294583094211       -0.8194842575378962
N        0.5929306073819469       -0.2442441795207288        0.5341106477776389        0.3116552922920345
N        1.1052305994490117       -0.3085158614365113        1.8117293717794338        0.0918298459672651
N        1.4231345436389153       -0.2979352556736866        0.6884965387855845        0.5593901217632046
O        1.0837081029030078       -0.2447803909842466        0.6077357893905811       -0.9963138680841535
N       -1.0094386415074466        0.7726879475243857        0.0224419149950889        0.9989733053171830
O       -1.0201507587185512        0.8712857499600508        0.0401125068073366       -0.8354521971080898
N       -1.0646718005603708        1.6470382420211702       -0.0696129780808256        0.2899344186932475
O       -0.9494750715544584        1.2754804309261767       -0.0433378268401144       -0.8678253524624289
N       -0.4239738082451336       -0.3852297184376497        0.1836091380992489        0.9219570073558310
O       -0.6275010509955689       -0.2671393481805820        0.2957236949510681       -0.9704818863270434
O       -0.5602745988751764       -0.3235762497373971       -0.3740471795944220       -0.3320651923316272
N       -0.7068173163030795        0.2950586728395022        0.0348833853284337        0.9769593393400061
O       -1.3766164222148642       -0.8450622408318921        0.3985090149593180       -0.1970026432733326
O       -1.1402842465281453       -0.8154651714020649       -0.5780291699094298       -0.1946060569702309
N       -2.5737893987442755       -0.7370543194123956       -0.4514909850874985        0.1283355164991325
N       -1.0029686089960086       -2.1815150757664883       -0.0282858875238216        0.1235072004109040

        RMSE         1.149256116E+00 kcal/mol

Coordinates in bohr
s                   x[bohr]                   y[bohr]                   z[bohr]                      q[e]
+        3.2210830185062482        0.0949373645798516       -3.3736679349140890        0.0707249461841811
-        3.0890911772987084       -0.7245322101389907       -0.5060294231078314       -0.3496602100029151
+        2.7315502552752942        0.2041617777281199       -0.7664075679541410        0.9824851761690530
+        5.9090075757769549       -0.3249537915078717        0.1823920716500053        0.1071394941056757
-        2.8964089706996101        0.4640954853070797       -0.5813354243277529       -0.8194842575378962
+        1.1204764593532432       -0.4615546070313331        1.0093228449906084        0.3116552922920345
+        2.0885831384342137       -0.5830104834747026        3.4236723261108946        0.0918298459672651
+        2.6893345271559621       -0.5630160363415232        1.3010698966304080        0.5593901217632046
-        2.0479115144261542       -0.4625678998427126        1.1484541985871175       -0.9963138680841535
+       -1.9075625729032806        1.4601686012632191        0.0424090730715233        0.9989733053171830
-       -1.9278055406560715        1.6464914444386249        0.0758016520714289       -0.8354521971080898
+       -2.0119381165571593        3.1124511955755385       -0.1315494633502593        0.2899344186932475
-       -1.7942478481874009        2.4103086928314048       -0.0818966236003316       -0.8678253524624289
+       -0.8011943819506765       -0.7279786632343900        0.3469709851389449        0.9219570073558310
-       -1.1858051298185714       -0.5048202053946209        0.5588367922659546       -0.9704818863270434
-       -1.0587655469248258       -0.6114704927064261       -0.7068467274333955       -0.3320651923316272
+       -1.3356911485439187        0.5575800826077214        0.0659200445995535        0.9769593393400061
-       -2.6014280177937130       -1.5969361941379614        0.7530728967990877       -0.1970026432733326
-       -2.1548249311122309       -1.5410058387994279       -1.0923168236545513       -0.1946060569702309
+       -4.8637570682334532       -1.3928308032751429       -0.8531943099285366        0.1283355164991325
+       -1.8953359834338548       -4.1224660317560460       -0.0534525806355273        0.1235072004109040
