21
s                      x[A]                      y[A]                      z[A]                      q[e]
N 0.0266311353152325 -0.0452321945298843 0.3773360439567049 0.0707249461841811
O 0.1029173801992281 0.2922515972086595 0.3051876199063277 -0.3496602100029151
N 0.3745512535687321 -0.1820687451722360 0.3277282569103397 0.9824851761690530
N 0.0392337897865322 -0.0110472987202183 -0.1890850492047973 0.1071394941056757
O 0.2570647527985123 -0.3300408636958552 0.3186638641526721 -0.8194842575378962
N 0.0999541460719377 0.1228517539066447 0.2890339211545395 0.3116552922920345
N 0.0305961658120854 -0.0162702837644434 0.2454861989076203 0.0918298459672651
N 0.0888384779330219 0.0366206058171850 -0.5526964850088893 0.5593901217632046
O 0.0490339890251729 0.0621867569922491 -0.1984650722258749 -0.9963138680841535
N 0.2261842046382104 0.0810298083740675 -0.4242711674845425 0.9989733053171830
O 0.2020662319753568 0.1012049356733393 -0.3289878639844675 -0.8354521971080898
N 0.0345610925623196 0.0061223823488990 0.4298047682607166 0.2899344186932475
O 0.0354338511226439 -0.0004744362574799 0.0415380686447428 -0.8678253524624289
N 0.0002796882188919 0.0741973345469895 -0.3507956737278689 0.9219570073558310
O 0.1229770099163125 0.2455002992285879 -0.1785333349722901 -0.9704818863270434
O 0.2590163116858387 -0.4153969369066143 -0.1998830256794939 -0.3320651923316272
N 0.0919827528261778 0.0094291621466633 0.3961803194674599 0.9769593393400061
O 0.1995178161065812 -0.5162091642948206 -0.1026408978738874 -0.1970026432733326
O 0.2308526740448772 0.4882552606053484 -0.0748970333228376 -0.1946060569702309
N 0.0218809454624344 -0.0006821018038138 0.1843196222361477 0.1283355164991325
N 0.0373554184331136 0.0056263618850844 -0.1433200617417341 0.1235072004109040
