21
s                      x[A]                      y[A]                      z[A]                      q[e]
N       -1.7606807641269389        1.0496002030067384       -1.2918523837212177        0.0707249461841811
O       -1.6660052103716112        0.1555893882703870        0.0058321172572723       -0.3496602100029151
N       -1.4203188626487535       -0.0231231306373174       -0.4415842867101359        0.9824851761690530
N       -3.0886238698089490       -0.4621405596896871       -0.0388752963283600        0.1071394941056757
O       -1.4666969918091490       -0.1689073227960071       -0.5051565293301895       -0.8194842575378962
N       -0.6057683837028469       -0.4769452275532601        0.1979940370559810        0.3116552922920345
N       -1.0090932732786377       -1.4668807872555640        1.2768080955745085        0.0918298459672651
N       -1.3855390533986487       -0.6960489588658744        0.4325793297271203        0.5593901217632046
O       -1.0487277666902886       -0.5929688389268376        0.3602624995418190       -0.9963138680841535
N        0.8327688243795009        0.8432859240193739       -0.0048110680874382        0.9989733053171830
O        0.8302723699837620        0.9374970516261436       -0.0211648293738027       -0.8354521971080898
N        0.7722496134740090        1.7107803593919209        0.1084985683563730        0.2899344186932475
O        0.7372818754608275        1.3229413091635462        0.1117158813755165       -0.8678253524624289
N        0.4554608524295634       -0.4031667621618434        0.0400760615940819        0.9219570073558310
O        0.5707126746726147       -0.2610157301295286       -0.1443285304295112       -0.9704818863270434
O        0.8278588568050081       -0.3149814683003893        0.4736379273636285       -0.3320651923316272
N        0.6484003225423981        0.3193730856663537        0.0883745623022916        0.9769593393400061
O        1.2511309106483155       -0.6645035989535496       -0.6809644186626785       -0.1970026432733326
O        1.5175012589808832       -0.6932927968299870        0.2872990757868800       -0.1946060569702309
N        2.6727577365763278       -0.3226978273041848       -0.5027234883825156        0.1283355164991325
N        1.3749456065626220       -2.0576007566032586       -0.2665637035681607        0.1235072004109040

        RMSE         6.049714492E-01 kcal/mol

Coordinates in bohr
s                   x[bohr]                   y[bohr]                   z[bohr]                      q[e]
+       -3.3272044385617283        1.9834569249076737       -2.4412471997529561        0.0707249461841811
-       -3.1482935711880988        0.2940213318585520        0.0110211043478009       -0.3496602100029151
+       -2.6840136612278980       -0.0436963840677131       -0.8344733631878040        0.9824851761690530
+       -5.8366532184906283       -0.8733190892793046       -0.0734636631066166        0.1071394941056757
-       -2.7716556235521552       -0.3191885806687532       -0.9546074909208627       -0.8194842575378962
+       -1.1447363406596318       -0.9012958569198245        0.3741545045095526        0.3116552922920345
+       -1.9069099215383976       -2.7720029466089859        2.4128176154032044        0.0918298459672651
+       -2.6182893470495352       -1.3153419021665640        0.8174564607183754        0.5593901217632046
-       -1.9818082592076802       -1.1205487065024398        0.6807974574069142       -0.9963138680841535
+        1.5737050038967448        1.5935794418502558       -0.0090916010561885        0.9989733053171830
-        1.5689873888041028        1.7716126709976099       -0.0399957310085322       -0.8354521971080898
+        1.4593402699565445        3.2329063400630456        0.2050325791978101        0.2899344186932475
-        1.3932608218848705        2.4999967543737349        0.2111124196638612       -0.8678253524624289
+        0.8606962719594385       -0.7618747633734780        0.0757327805997937        0.9219570073558310
-        1.0784906514587540       -0.4932482443812201       -0.2727413946015825       -0.9704818863270434
-        1.5644265098960750       -0.5952287096823123        0.8950459653467460       -0.3320651923316272
+        1.2252990292636521        0.6035276637517896        0.1670037192085410        0.9769593393400061
-        2.3642947682199655       -1.2557298114032738       -1.2868362524540660       -0.1970026432733326
-        2.8676617745113204       -1.3101335107613525        0.5429165693343557       -0.1946060569702309
+        5.0507801218278185       -0.6098105148851964       -0.9500097098777346        0.1283355164991325
+        2.5982706338048471       -3.8883019055149717       -0.5037323947315494        0.1235072004109040
