23
s                      x[A]                      y[A]                      z[A]                      q[e]
N 1.2284158309417621 -1.4964798032476589 0.6113738933995916 0.2856065124296451
O 1.2515810251523969 -1.2921746777142968 0.5381476191200167 -0.2980193526493612
N 2.6125982187952417 -0.3033857411391858 -0.1836492094695197 0.9235469647741466
O 2.5205746095536332 -0.3331768205285709 -0.1800957806867185 -0.9987019282037162
O 1.4068832120956147 -0.1934607564323347 -0.0127535499414411 -0.9994297377915048
N 1.6611380336336932 0.0851721530559348 -0.1606387504887995 0.3910255639585828
N 1.8549639542806646 -0.5216987469109493 0.0318093531730067 0.3788084070601841
N 1.0125345479182286 -0.5264325436251035 0.2384204864818388 0.3521750120262308
N 1.1490865590715740 0.7168187480934725 -0.2303834166200191 0.5091785922378865
N 0.5362499442913756 0.8803969381293784 0.0801306335324586 0.9946620798872232
O 0.7351319327904851 0.8549796508951242 0.1212366057496461 -0.5088390984708862
O 0.8530274602901573 0.7117994978956692 -0.0733488448264852 -0.9513197152299744
N 1.1999034691251542 1.7063339153036483 -0.6784358741238057 0.0534150746794947
N 0.7735752851653734 1.8512194923680130 -0.6413484757836662 0.0449830180293293
O 0.6448764091904606 1.0833051509703417 -0.1593074586182699 -0.1594766348608674
O -0.9211095543396577 1.0644441813587777 1.0059086007918048 -0.2085098172073890
N -1.0613829717619829 1.1721079911316976 0.7284281294919565 0.7433887315217406
O -1.0717982964222132 1.2739101731965239 0.6042835592960456 -0.4563903046399361
N -0.5313780239718613 0.0058096338378748 -0.0979942111098007 0.2740207269363132
N -1.2775070150313179 -0.1054199913737513 -0.0287356502388370 0.2947455612059413
O -1.3863616237831433 -0.7491429453735996 -0.3881022922656038 -0.8294346811293033
N -1.6243055484157196 -0.7123900104758686 -0.2782483768478886 0.8271270632704910
O -1.8237092772251873 -0.5139068164975590 -0.0850771134294058 -0.6625620378342709
