25
s                      x[A]                      y[A]                      z[A]                      q[e]
N 2.0496105662341666 1.1372852119656458 -0.1139234578641681 0.1158659338886357
O 1.5936409959627895 -0.4405952217685618 -0.6455299915070430 -0.2341991647481463
N 3.1129734579868877 -0.9589090183721587 -0.5947689220975363 0.0569852111266852
N 1.9821905258835977 -0.7090752201325564 -0.2690807185222794 0.3189271149812888
O 1.8287733019136641 -0.5374391883656319 0.0951095140651975 -0.2877498234141676
N 1.1689201723323002 -1.0586048011371254 -0.0139531956999404 0.5692545008206258
O 0.6876512601880204 -0.5649786445898430 -0.4381314730670098 -0.2058946535748549
O 1.0097492424930290 -0.8227293750158289 0.0935405917300859 -0.9992971180892700
N 0.6070597053079545 -0.4524392470460257 0.0631904005201818 0.6691943173322236
N 0.5090625318348543 -2.1848077066062532 -0.0287198869106315 0.0628076875181509
N -0.3352265776966818 1.7232846107314002 0.2964088865771677 0.7576134719858190
O -0.3724659704731740 1.3718501899236542 0.2121204135641935 -0.9235083265987739
N -0.4890092570767423 0.9651253657085932 0.2866351100026509 0.9955526175656415
O -0.3641871276894803 1.5250871047904795 0.3436083455445181 -0.9936641819349231
O -0.4739103366254208 -0.1049961528069543 0.3837718173900403 -0.9934394819660318
N -0.4569871133545458 0.3183223093389769 0.2210832503097335 0.8475065253219278
N -0.4956116837015068 -0.3847136119350832 0.2823599241348467 0.9207393412409772
O -0.7424374180343095 -0.1685775962567244 0.0477515142674098 -0.6738758902636315
N -2.8098288277328427 -0.0001336180394630 -0.4305593083402726 0.1207489421105395
N -1.2310338869462649 -0.5242177382825104 0.3011118812131295 0.4308753055723465
O -1.4808836379164916 -0.2297939032722977 0.2300818977964588 -0.7095764258838037
N -1.5665128272781388 -0.1703337877604289 -0.0754792924958612 0.9977500474782615
O -1.5241436281519114 -0.4067419417550962 -0.0722278315657767 -0.9963537733476465
O -2.0597142753530324 -1.3478592831023799 1.0597502781619115 -0.1586318904925156
N -2.0215016024116421 -1.4032140083657465 0.8981905771260462 0.3123697133706422
