25
s                      x[A]                      y[A]                      z[A]                      q[e]
N -1.9829372515672203 1.3597529289110011 -0.4917372444648628 0.1158659338886357
O -1.8644278374880991 -0.0777324648391743 0.4265824333562913 -0.2341991647481463
N -3.3494403977651901 -0.5290750324243749 0.0380729991260858 0.0569852111266852
N -2.1444597044709428 -0.4288456340586060 -0.0151725817116693 0.3189271149812888
O -1.8860301804753308 -0.3150168646387056 -0.3256638276741055 -0.2877498234141676
N -1.3586701287602687 -0.7745503298471298 0.3117455226580070 0.5692545008206258
O -0.8075534093940555 -0.6525248639638624 -0.3838192578723876 -0.2058946535748549
O -1.0620082820614947 -0.7134965150065485 0.2804506128813105 -0.9992971180892700
N -0.5653726296130219 -0.6275586035453218 0.1011651315532515 0.6691943173322236
N -0.8429869427714111 -1.9895599605332437 0.4967422316971553 0.0628076875181509
N 1.7071704875626716 -1.0850313422313929 -0.1231492004461829 0.7576134719858190
O 1.4391974760817947 -0.8619348486924698 -0.1686636872858338 -0.9235083265987739
N 1.1908246109157872 -0.5166552785375048 -0.0675721003937344 0.9955526175656415
O 1.5796158406704963 -0.9472142878281099 -0.0616874387377081 -0.9936641819349231
O 0.3575176578778416 0.1100399016504070 0.1537918837777762 -0.9934394819660318
N 0.6455966503978650 -0.1684767697869469 -0.0440409018490163 0.8475065253219278
N 0.1298524516965169 0.2711132564288420 0.0948781616198193 0.9207393412409772
O 0.3856647105588200 0.3353320126719807 -0.2018420116596553 -0.6738758902636315
N 2.0820542919703398 1.7232493990305782 -0.0847217466642805 0.1207489421105395
N 0.4376862330446287 0.9542757279920777 0.0034568624028718 0.4308753055723465
O 0.8339352275253958 0.9452506887556862 0.2464603264984341 -0.7095764258838037
N 1.0512233585803210 0.9186933111968943 0.0110770279469145 0.9977500474782615
O 0.8692820961159649 1.0294018345775435 -0.0839906271726595 -0.9963537733476465
O 0.0879389029198410 2.2160085218911503 0.5755687001382213 -0.1586318904925156
N 0.1165805495532797 2.1929383835041585 0.4018545494580696 0.3123697133706422
