25
s                      x[A]                      y[A]                      z[A]                      q[e]
N 1.9393591993380277 1.2968202825061170 -0.7162812052139571 0.1158659338886357
O 1.8042969476415220 -0.3572633842551644 -0.4218399723863795 -0.2341991647481463
N 3.3539655027118958 -0.4771875208139940 0.0343725352711235 0.0569852111266852
N 2.1560121009011080 -0.3655396974448100 0.0690716851056193 0.3189271149812888
O 1.9208860892392690 -0.0932086801119384 0.3060988421191091 -0.2877498234141676
N 1.4033412376462868 -0.7037913717378879 0.1466547798077531 0.5692545008206258
O 0.7002562126198675 -0.6814291753782904 0.6696176572327854 -0.2058946535748549
O 1.1136239961380063 -0.6944331456512243 0.0544384067105844 -0.9992971180892700
N 0.5723999237375285 -0.5995793265880531 0.1721871522366254 0.6691943173322236
N 0.8822004107575594 -1.8709689321870970 0.7845970012672346 0.0628076875181509
N -1.6931470412562906 -1.1160934299691894 -0.1881514510637091 0.7576134719858190
O -1.4422611266774692 -0.8859753742574064 -0.0612680026274652 -0.9235083265987739
N -1.1946796037790375 -0.5351867008273925 -0.0757785637108007 0.9955526175656415
O -1.5550380367290997 -0.9649890312432852 -0.2091780365708275 -0.9936641819349231
O -0.3338317695020186 0.1178336123644821 -0.0521083150336710 -0.9934394819660318
N -0.6606580035977061 -0.1768431838683133 0.0588091507096542 0.8475065253219278
N -0.1279962605136106 0.2870974907296010 0.0819762113662722 0.9207393412409772
O -0.4541565033701187 0.3118253030895659 0.3179568412036475 -0.6738758902636315
N -2.1114154562114327 1.6946983588956002 -0.0634889997759791 0.1207489421105395
N -0.4699269697139232 0.9448107706506703 0.1868370784349093 0.4308753055723465
O -0.7931047544220503 0.9729227407527153 -0.1554667544796964 -0.7095764258838037
N -1.0687942706469076 0.9144142362665000 0.0020373723448660 0.9977500474782615
O -0.9245226085379313 1.0069122444084031 0.1703357452129309 -0.9963537733476465
O -0.0318098710724062 2.2747813875348313 -0.0734752333557889 -0.1586318904925156
N -0.0859853515684435 2.2239842059628812 0.0849878684644028 0.3123697133706422
