21
s                      x[A]                      y[A]                      z[A]                      q[e]
N       -1.8723069797853065        1.2861579228960016       -1.1159095228045461        0.0707249461841811
O       -1.6969048890457690        0.2452645874428222        0.0928732306926392       -0.3496602100029151
N       -1.4967563474703152        0.1543604178538447       -0.4083801794292048        0.9824851761690530
N       -3.1328657108446771       -0.3248933092842615        0.0872043385211872        0.1071394941056757
O       -1.5425724275149513       -0.0186200580507795       -0.4695135146800267       -0.8194842575378962
N       -0.6198412779062913       -0.2393287003042344        0.4004594908884793        0.3116552922920345
N       -0.9541406544001660       -1.5023803320357272        1.0914637445623780        0.0918298459672651
N       -1.4193609421948208       -0.5056067358201211        0.4686680655803031        0.5593901217632046
O       -1.0748451180949854       -0.4386318296531796        0.4175141225776905       -0.9963138680841535
N        1.2529928076580572       -0.5460984952876999       -0.0652387167986565        0.9989733053171830
O        1.2968540622181211       -0.6380594278867745       -0.0641759522883905       -0.8354521971080898
N        1.6190255470369563       -1.3196132249879016       -0.2701367203373208        0.2899344186932475
O        1.3784174844991732       -1.0221776652700219       -0.2096108119204849       -0.8678253524624289
N        0.2809263127104145        0.3033747935376683        0.1895683257019802        0.9219570073558310
O        0.5127603947260575        0.2378500106110902        0.3029520930207749       -0.9704818863270434
O        0.4644055358706760        0.3808556695202160       -0.3549472921548998       -0.3320651923316272
N        0.7974625271822211       -0.2069770222824107       -0.0196370500021648        0.9769593393400061
O        1.0281232655465555        0.9976905754306468        0.5836386330022085       -0.1970026432733326
O        0.8383364050149464        1.0927173876267546       -0.3985057412778794       -0.1946060569702309
N        2.2114577487259939        1.4669247090378896       -0.1487268573829998        0.1283355164991325
N        0.2204722663701148        2.1992346334126034        0.3766165218021765        0.1235072004109040

        RMSE         1.523412154E+00 kcal/mol

Coordinates in bohr
s                   x[bohr]                   y[bohr]                   z[bohr]                      q[e]
+       -3.5381474145773355        2.4304862283611492       -2.1087633788909290        0.0707249461841811
-       -3.2066855012469069        0.4634828985403371        0.1755049703955521       -0.3496602100029151
+       -2.8284595732594893        0.2916989143549973       -0.7717266941865238        0.9824851761690530
+       -5.9202581813341961       -0.6139593745409193        0.1647923167567559        0.1071394941056757
-       -2.9150394166859055       -0.0351868101560994       -0.8872519549463740       -0.8194842575378962
+       -1.1713302564966848       -0.4522656975367786        0.7567587621195004        0.3116552922920345
+       -1.8030645219814225       -2.8390873638219203        2.0625675530895555        0.0918298459672651
+       -2.6822034539199913       -0.9554582578867371        0.8856542876948815        0.5593901217632046
-       -2.0311629004848983       -0.8288940279529812        0.7889873451826638       -0.9963138680841535
+        2.3678132436421864       -1.0319765936183751       -0.1232833075257657        0.9989733053171830
-        2.4506990022796953       -1.2057575704723129       -0.1212749736655066       -0.8354521971080898
+        3.0595148740193880       -2.4937075867592964       -0.5104844178669301        0.2899344186932475
-        2.6048315322459485       -1.9316358389202473       -0.3961070274645674       -0.8678253524624289
+        0.5308737924574058        0.5732952731535065        0.3582322176383307        0.9219570073558310
-        0.9689767140138992        0.4494713789921988        0.5724964849434885       -0.9704818863270434
-        0.8775992739420591        0.7197129087210848       -0.6707531711456265       -0.3320651923316272
+        1.5069857716898667       -0.3911298863765385       -0.0371086464160125        0.9769593393400061
-        1.9428713950943421        1.8853619455143471        1.1029171726107669       -0.1970026432733326
-        1.5842262064791393        2.0649365951403067       -0.7530667104377468       -0.1946060569702309
+        4.1790494831136638        2.7720859467485233       -0.2810530279538952        0.1283355164991325
+        0.4166322016985033        4.1559511427714657        0.7117020805286306        0.1235072004109040
