21
s                      x[A]                      y[A]                      z[A]                      q[e]
N -1.8723069797853065 1.2861579228960016 -1.1159095228045461 0.0707249461841811
O -1.6969048890457690 0.2452645874428222 0.0928732306926392 -0.3496602100029151
N -1.4967563474703152 0.1543604178538447 -0.4083801794292048 0.9824851761690530
N -3.1328657108446771 -0.3248933092842615 0.0872043385211872 0.1071394941056757
O -1.5425724275149513 -0.0186200580507795 -0.4695135146800267 -0.8194842575378962
N -0.6198412779062913 -0.2393287003042344 0.4004594908884793 0.3116552922920345
N -0.9541406544001662 -1.5023803320357272 1.0914637445623780 0.0918298459672651
N -1.4193609421948210 -0.5056067358201211 0.4686680655803031 0.5593901217632046
O -1.0748451180949854 -0.4386318296531796 0.4175141225776905 -0.9963138680841535
N 1.2529928076580574 -0.5460984952876999 -0.0652387167986565 0.9989733053171830
O 1.2968540622181211 -0.6380594278867745 -0.0641759522883905 -0.8354521971080898
N 1.6190255470369563 -1.3196132249879016 -0.2701367203373208 0.2899344186932475
O 1.3784174844991732 -1.0221776652700219 -0.2096108119204849 -0.8678253524624289
N 0.2809263127104145 0.3033747935376683 0.1895683257019802 0.9219570073558310
O 0.5127603947260575 0.2378500106110902 0.3029520930207749 -0.9704818863270434
O 0.4644055358706760 0.3808556695202160 -0.3549472921548998 -0.3320651923316272
N 0.7974625271822211 -0.2069770222824107 -0.0196370500021648 0.9769593393400061
O 1.0281232655465555 0.9976905754306468 0.5836386330022086 -0.1970026432733326
O 0.8383364050149464 1.0927173876267546 -0.3985057412778794 -0.1946060569702309
N 2.2114577487259939 1.4669247090378899 -0.1487268573829998 0.1283355164991325
N 0.2204722663701148 2.1992346334126034 0.3766165218021765 0.1235072004109040
