25
s                      x[A]                      y[A]                      z[A]                      q[e]
N       -1.7889223526750762        1.1682279618456970        0.7376053296809589        0.1158659338886357
O       -1.7205381768472117       -0.4622586823962286        0.4550820070749274       -0.2341991647481463
N       -3.3177761681795972       -0.5776218201773962        0.1018193570396131        0.0569852111266852
N       -2.0626757520269550       -0.4440971072194559        0.0396706363326435        0.3189271149812888
O       -1.8645602202228406       -0.1881192925092426       -0.3251830418387435       -0.2877498234141676
N       -1.2601697115417478       -0.7934834422470668       -0.3959468620897406        0.5692545008206258
O       -0.9040481228293039       -0.4284433442702659        0.1706698958273527       -0.2058946535748549
O       -0.9883744270531474       -0.6433349314967413       -0.3664847977019960       -0.9992971180892700
N       -0.6001916077143193       -0.3822767194035214       -0.2205044700650738        0.6691943173322236
N       -0.8753853335948333       -2.0884342811533694       -0.8436955453648463        0.0628076875181509
N        0.5526555354578411        1.3069362789666761       -0.1104101050995946        0.7576134719858190
O        0.5109798440166495        1.0647571948887768       -0.0809076951730801       -0.9235083265987739
N        0.5603476144844574        0.6431378224809958       -0.0848087762327892        0.9955526175656415
O        0.5514300386942417        1.1663869129208315       -0.1381265254354100       -0.9936641819349231
O        0.4260381263086148       -0.2199764843743832       -0.1715969791442556       -0.9934394819660318
N        0.4406961966040451        0.1358537620466542       -0.0647077216901970        0.8475065253219278
N        0.3723096421789946       -0.4546106508920518       -0.1124964083054604        0.9207393412409772
O        0.6036167821151055       -0.3129948311097827        0.0966929948160428       -0.6738758902636315
N        2.8055024398046178       -0.1281004786674922        0.3788837886874897        0.1207489421105395
N        1.0315487313132823       -0.7208903948165638        0.1105036851827779        0.4308753055723465
O        1.3130078621114833       -0.5003319726668868       -0.0517307658146104       -0.7095764258838037
N        1.3689237472389371       -0.2945650398697155        0.0982312783862537        0.9977500474782615
O        1.3165904669767825       -0.4903434079458328        0.1988910673775687       -0.9963537733476465
O        1.7230706366309212       -1.8420279150856287       -0.0772873923845524       -0.1586318904925156
N        1.6789327223949575       -1.8740243493397590        0.0749575780362466        0.3123697133706422

        RMSE         5.018523229E-01 kcal/mol

Coordinates in bohr
s                   x[bohr]                   y[bohr]                   z[bohr]                      q[e]
+       -3.3805733062655743        2.2076308999901646        1.3938720617750424        0.1158659338886357
-       -3.2513459426357567       -0.8735423088438657        0.8599803579952744       -0.2341991647481463
+       -6.2696883034303497       -1.0915470442237292        0.1924106990750754        0.0569852111266852
+       -3.8978922569537096       -0.8392219057528520        0.0749666378913329        0.3189271149812888
-       -3.5235081606445036       -0.3554939417573588       -0.6145068897185196       -0.2877498234141676
+       -2.3813756264110961       -1.4994663909324899       -0.7482311295840306        0.5692545008206258
-       -1.7084033563816432       -0.8096405809460440        0.3225193609741144       -0.2058946535748549
-       -1.8677569765367450       -1.2157268274690141       -0.6925558968005888       -0.9992971180892700
+       -1.1341977613782854       -0.7223983038111459       -0.4166930578622035        0.6691943173322236
+       -1.6542385347367727       -3.9465688223972615       -1.5943535140083402        0.0628076875181509
+        1.0443676037335674        2.4697516306719680       -0.2086448601212484        0.7576134719858190
-        0.9656119608206286        2.0120994884505139       -0.1528933853191477       -0.9235083265987739
+        1.0589035264292503        1.2153543454123967       -0.1602653601152087        0.9955526175656415
-        1.0420517504827296        2.2041518217386002       -0.2610213037340095       -0.9936641819349231
-        0.8050953777264914       -0.4156953095086377       -0.3242712945385420       -0.9934394819660318
+        0.8327951161125635        0.2567264033812937       -0.1222798721968195        0.8475065253219278
+        0.7035632575855019       -0.8590896239020983       -0.2125874017949995        0.9207393412409772
-        1.1406704029277004       -0.5914745094814169        0.1827232784526343       -0.6738758902636315
+        5.3016312555344642       -0.2420748212216132        0.7159865939951924        0.1207489421105395
+        1.9493445872455870       -1.3622854126764692        0.2088217008492626        0.4308753055723465
-        2.4812252599635998       -0.9454904001504680       -0.0977569796498099       -0.7095764258838037
+        2.5868909689170478       -0.5566472514883282        0.1856302131036244        0.9977500474782615
-        2.4879954019747479       -0.9266147484412658        0.3758496461435848       -0.9963537733476465
-        3.2561315980507040       -3.4809282749599264       -0.1460520045575991       -0.1586318904925156
+        3.1727230283957866       -3.5413927726914505        0.1416492935161391        0.3123697133706422
