21
s                      x[A]                      y[A]                      z[A]                      q[e]
N        2.0205604413177474        1.4225945138868470        0.3670717658898897        0.0690680479201058
O        1.8294932704402238       -0.3705260619299500       -0.3263541894127630       -0.3117950550350966
N        1.9115689705811949       -0.5101233002474910        0.0221538548364899        0.5776243102962968
N        3.2458555716254489       -0.7339384312928812        0.0955540465949739        0.0604184539076988
O        1.7420614134319643       -0.4933845759133782        0.3289476708755990       -0.3968494342195521
O        0.5562146413077376       -0.9703083695010138       -0.0394653117005656       -0.9828651838991298
N        0.3359331456084281       -0.9521253524768408       -0.0284491802886469        0.7759263489545838
N        0.9254398347886441       -1.5016785258591892       -0.2345642169014461        0.9970342621901004
O        0.8966965385688297       -1.5530176795866604        0.0373043360056550       -0.3970377457969525
O        0.9982479192655546       -1.4819312533905726       -0.5006298246878446       -0.3893757401670396
N       -0.5327860577759267        1.7848172769124273       -0.1544009283624965        0.1691966627363242
O       -0.5280548263227863        1.3342714502799298       -0.1118024523520383       -0.6800109224217911
O       -0.7302630194258920       -0.3879736836177199       -0.3913261609046678       -0.9821368279659007
N       -0.6733416020053352       -0.5550043136855769       -0.2684751403771788        0.8921713087406896
O       -0.8800852971753976       -0.3063565786072615        0.2892030636040525       -0.3335771210350215
N       -0.6309540001684742        0.2699417684389808       -0.1276296375902015        0.9988617281482304
N       -2.9521008121536370        0.0325981278948740        0.2454709649301240        0.0655379221577991
N       -1.6819648826109435       -0.3808635591504714        0.1129407279141150        0.9908754307264420
O       -1.6143780707569788       -0.4642251296724467       -0.2517109057643181       -0.6595771554465193
O       -1.6092223677512594       -0.4475225572323102        0.4702055153628681       -0.5578053818499882
N       -1.6012985263060422       -2.0813243196467286        0.0885764753232057        0.0943160920587207

        RMSE         1.363923583E+00 kcal/mol

Coordinates in bohr
s                   x[bohr]                   y[bohr]                   z[bohr]                      q[e]
+        3.8183058540247461        2.6883140188249537        0.6936651059200643        0.0690680479201058
-        3.4572412295001747       -0.7001927793920316       -0.6167200378859107       -0.3117950550350966
+        3.6123418243218106       -0.9639933276824515        0.0418647182641152        0.5776243102962968
+        6.1337780731634632       -1.3869426280916928        0.1805709782437368        0.0604184539076988
-        3.2920189651143734       -0.9323617230014418        0.6216210075621226       -0.3968494342195521
-        1.0510933390413866       -1.8336170755964536       -0.0745786305698952       -0.9828651838991298
+        0.6348216416634753       -1.7992561532862295       -0.0537611592393160        0.7759263489545838
+        1.7488278333394771       -2.8377611423551086       -0.4432621287762193        0.9970342621901004
-        1.6945108755411205       -2.9347780824128065        0.0704949783427434       -0.3970377457969525
-        1.8864151727200353       -2.8004442056646299       -0.9460532588959923       -0.3893757401670396
+       -1.0068197326588526        3.3728158373499126       -0.2917754681215521        0.1691966627363242
-       -0.9978790009762655        2.5214076180464891       -0.2112760150999008       -0.6800109224217911
-       -1.3799971062648255       -0.7331640059225152       -0.7394992698366646       -0.9821368279659007
+       -1.2724312166671090       -1.0488061513134264       -0.5073444868067127        0.8921713087406896
-       -1.6631201787036654       -0.5789300303000168        0.5465145848550200       -0.3335771210350215
+       -1.1923302580804886        0.5101160121714294       -0.2411850605369183        0.9988617281482304
+       -5.5786620297120004        0.0616015339239590        0.4638728954697977        0.0655379221577991
+       -3.1784529807725090       -0.7197278179614987        0.2134270441675273        0.9908754307264420
-       -3.0507324166756691       -0.8772583556360705       -0.4756646746854854       -0.6595771554465193
-       -3.0409895500106598       -0.8456950681335927        0.8885596467155741       -0.5578053818499882
+       -3.0260156598176473       -3.9331329423871630        0.1673852795192324        0.0943160920587207
