21
s                      x[A]                      y[A]                      z[A]                      q[e]
N 0.0269465434051169 -0.0434830476374336 0.3750795017126177 0.0707249461841811
O 0.1107898403630132 0.2983583286778786 0.3074329161030034 -0.3496602100029151
N 0.3651521187624981 -0.1884563180404750 0.3226818698471521 0.9824851761690530
N 0.0376939449559511 -0.0080366420809486 -0.1891472988066190 0.1071394941056757
O 0.2664475341863163 -0.3203197428878097 0.3137194016443481 -0.8194842575378962
N 0.0909847363817228 0.1321435825180384 0.2877306769179653 0.3116552922920345
N 0.0298999874264008 -0.0194716246619418 0.2482652298357514 0.0918298459672651
N 0.0776960850560213 0.0473928668904400 -0.5524156159088361 0.5593901217632046
O 0.0604696009050544 0.0492664240979188 -0.1938469502126197 -0.9963138680841535
N 0.2184218880804990 0.0865682585016455 -0.4236902874279899 0.9989733053171830
O 0.2052756049415815 0.0962536549536679 -0.3354177696941108 -0.8354521971080898
N 0.0294358574351695 0.0082663232978483 0.4293686101479424 0.2899344186932475
O 0.0401151354838597 -0.0056007847374168 0.0352387439757703 -0.8678253524624289
N -0.0049422737112927 0.0835608616437156 -0.3431481548772933 0.9219570073558310
O 0.1255919809570507 0.2356925917652217 -0.1852664736856793 -0.9704818863270434
O 0.2605080605456850 -0.4223890040259516 -0.2060553861401497 -0.3320651923316272
N 0.0850712906249736 0.0172307543636591 0.4013334567182232 0.9769593393400061
O 0.1967809054434663 -0.5127410221791764 -0.0960176319745237 -0.1970026432733326
O 0.2275980591739373 0.4918299636797419 -0.0770614539179395 -0.1946060569702309
N 0.0227105297700053 -0.0000137396326400 0.1851316903328054 0.1283355164991325
N 0.0360948720186672 0.0024236122165416 -0.1464734323272805 0.1235072004109040
