25
s                      x[A]                      y[A]                      z[A]                      q[e]
N -1.9267197812432366 1.2912619725857928 0.1872228441900269 0.1158659338886357
O -1.7560555854629720 -0.3743661199026674 0.4552516369315808 -0.2341991647481463
N -3.2849681061839071 -0.6758221570456476 0.0473897265072138 0.0569852111266852
N -2.0920099019910157 -0.5389692234476942 -0.0186015815863609 0.3189271149812888
O -1.8547406622715599 -0.3440159988239650 -0.3206914715129226 -0.2877498234141676
N -1.2780733758637688 -0.9667243158812115 -0.1900921630175312 0.5692545008206258
O -0.8426656602260936 -0.5312405502337317 0.4331160860127742 -0.2058946535748549
O -1.0730484803379925 -0.7468980299757665 -0.2369990197193473 -0.9992971180892700
N -0.6562642572631131 -0.4257465267221971 -0.0407254013255655 0.6691943173322236
N -0.7679154864727410 -2.1547811959734853 -0.2177292732862896 0.0628076875181509
N 0.5381915230249770 1.6286791656027180 -0.0358806085598302 0.7576134719858190
O 0.5212295519759519 1.2751363916618410 0.0449434848751943 -0.9235083265987739
N 0.6061358896098135 0.8588191918358435 -0.0165277353535852 0.9955526175656415
O 0.5543856908399922 1.4287757300566546 -0.0814979895817547 -0.9936641819349231
O 0.4855535794905885 -0.2024669001921138 -0.1420714686453015 -0.9934394819660318
N 0.4870864201956244 0.2191785133202868 0.0250431878807134 0.8475065253219278
N 0.4549782766430467 -0.4829716703090743 -0.0457601353711062 0.9207393412409772
O 0.6757766537400602 -0.2985711919794082 0.2364319075762955 -0.6738758902636315
N 2.8465438239289580 -0.0295867131174217 0.1247502953555982 0.1207489421105395
N 1.1562458036564391 -0.7082661607784692 0.0958210957904373 0.4308753055723465
O 1.4312597006591949 -0.4432296842755241 -0.1803455132345592 -0.7095764258838037
N 1.5624205516386811 -0.2352610023288556 0.0285631753307574 0.9977500474782615
O 1.5138176061924380 -0.4286313029835274 0.1620264858564052 -0.9963537733476465
O 1.8448777601799760 -1.8916191350551783 -0.3023136356291639 -0.1586318904925156
N 1.8295896583530780 -1.8447099161031970 -0.1341286554445902 0.3123697133706422
