25
s                      x[A]                      y[A]                      z[A]                      q[e]
N        1.6756489396818259        0.1249089297369388       -1.6452986390104796        0.1158659338886357
O        1.8163119160371384       -0.5539212513263504       -0.0889187134230641       -0.2341991647481463
N        3.3673424826369240       -0.1570290880094683        0.0242230203657315        0.0569852111266852
N        2.1649060888453255       -0.1091535587961930        0.1242246754482403        0.3189271149812888
O        1.8893100328473964        0.2134144866979483        0.0492115601420890       -0.2877498234141676
N        1.4160931780694925       -0.2688787949291583        0.7643449728215383        0.5692545008206258
O        1.0312059851371809       -0.0208544145557367        0.0169063152287152       -0.2058946535748549
O        1.1434623624609490       -0.1360933612240013        0.7405125817076257       -0.9992971180892700
N        0.7061668367848103        0.0145611961671541        0.4213553505965527        0.6691943173322236
N        1.1540734699138853       -0.3720714488553634        1.9394551293728730        0.0628076875181509
N       -1.0589097671057841        1.5364268969852319       -0.0570264608051952        0.7576134719858190
O       -0.9100532014346970        1.2077367172620372       -0.0994759578085717       -0.9235083265987739
N       -0.8702541255009841        0.7868998521569572       -0.0228455017626878        0.9955526175656415
O       -1.0216415718755369        1.3426663498132656        0.0014259619657849       -0.9936641819349231
O       -0.4502473262234216       -0.1832079577595856        0.2234544429340574       -0.9934394819660318
N       -0.5437482230287871        0.2132405641056972        0.0233578723848838        0.8475065253219278
N       -0.3082640113881380       -0.4384227818035080        0.1625996206417345        0.9207393412409772
O       -0.4971355654163732       -0.3392049998081000       -0.1796900143132863       -0.6738758902636315
N       -2.6220163145542799       -0.8043967840321949       -0.5016586687058848        0.1207489421105395
N       -0.8508721696460164       -0.8833568210410603       -0.0790036731695697        0.4308753055723465
O       -1.2487662112984990       -0.7163628679128132        0.1112578012700916       -0.7095764258838037
N       -1.3911317748152299       -0.5698842937710142       -0.1387653537820483        0.9977500474782615
O       -1.2559895413446378       -0.7402313576847033       -0.2408094170905516       -0.9963537733476465
O       -1.1925620742135172       -2.2145743737069883        0.2944483705645682       -0.1586318904925156
N       -1.1573954837289833       -2.1705145014196452        0.1287742037526516        0.3123697133706422

        RMSE         1.080928047E+00 kcal/mol

Coordinates in bohr
s                   x[bohr]                   y[bohr]                   z[bohr]                      q[e]
+        3.1665175784124551        0.2360436678268694       -3.1091638223183113        0.1158659338886357
-        3.4323320797157457       -1.0467594600776959       -0.1680320157976619       -0.2341991647481463
+        6.3633550628030182       -0.2967419700683088        0.0457748744226198        0.0569852111266852
+        4.0910795952537375       -0.2062703317438630        0.2347506146210593        0.3189271149812888
-        3.5702785281613125        0.4032949310642850        0.0929963708750447       -0.2877498234141676
+        2.6760282746805246       -0.5081072833592483        1.4444026640032146        0.5692545008206258
-        1.9486968908422075       -0.0394091320171037        0.0319483055729287       -0.2058946535748549
-        2.1608306998201838       -0.2571791802063647        1.3993659718831248       -0.9992971180892700
+        1.3344619204041701        0.0275166728149875        0.7962462141237483        0.6691943173322236
+        2.1808827867940379       -0.7031131374389263        3.6650390271291102        0.0628076875181509
+       -2.0010494514022645        2.9034260470890962       -0.1077643928259742        0.7576134719858190
-       -1.7197513103076825        2.2822916272847462       -0.1879823163257986       -0.9235083265987739
+       -1.6445419567466653        1.4870252087399045       -0.0431717415301440        0.9955526175656415
-       -1.9306227692270037        2.5372716790152272        0.0026946775806529       -0.9936641819349231
-       -0.8508441352819334       -0.3462128641700631        0.4222676986621136       -0.9934394819660318
+       -1.0275352227287688        0.4029662649979008        0.0441399816808249        0.8475065253219278
+       -0.5825345558585939       -0.8284989847699860        0.3072687511162177        0.9207393412409772
-       -0.9394500658615696       -0.6410045500232842       -0.3395649145317082       -0.6738758902636315
+       -4.9548927309898732       -1.5200896180198971       -0.9479974923159039        0.1207489421105395
+       -1.6079153684050624       -1.6693024628226669       -0.1492953051956675        0.4308753055723465
-       -2.3598261340797642       -1.3537296268027386        0.2102467737210872       -0.7095764258838037
+       -2.6288580588228561       -1.0769252384271695       -0.2622285143503349        0.9977500474782615
-       -2.3734762495807571       -1.3988345354999021       -0.4550638467322862       -0.9963537733476465
-       -2.2536157078714609       -4.1849390507635036        0.5564267784543523       -0.1586318904925156
+       -2.1871604830895603       -4.1016779590177759        0.2433479771164152        0.3123697133706422
