21
s                      x[A]                      y[A]                      z[A]                      q[e]
N 0.0264118689544085 -0.0475596359918054 0.3762505100477763 0.0707249461841811
O 0.1091432374684098 0.2826346920330502 0.3116015668592183 -0.3496602100029151
N 0.3680180439932073 -0.1711423041497749 0.3169216537743282 0.9824851761690530
N 0.0354210310116291 -0.0151038577845116 -0.1891218678954069 0.1071394941056757
O 0.2632806495379098 -0.3374862983072399 0.3188163732084164 -0.8194842575378962
N 0.0916683839628449 0.1217333778509462 0.2875637090184481 0.3116552922920345
N 0.0291638270577661 -0.0124746004025331 0.2456118174650840 0.0918298459672651
N 0.0788889614601243 0.0346535895934576 -0.5527412252429295 0.5593901217632046
O 0.0590908633312112 0.0644640659947710 -0.1938815996506845 -0.9963138680841535
N 0.2178632248369272 0.0808984138508777 -0.4226503575159295 0.9989733053171830
O 0.2060260285994903 0.1022545758194471 -0.3350874711956411 -0.8354521971080898
N 0.0288913848801295 0.0049741332472447 0.4299898410742510 0.2899344186932475
O 0.0409417176072801 0.0001186809961596 0.0358313033169434 -0.8678253524624289
N -0.0058459289797653 0.0738019718878064 -0.3435400190627810 0.9219570073558310
O 0.1258789170791151 0.2455409998520493 -0.1852369273437886 -0.9704818863270434
O 0.2632028435666121 -0.4153237762276119 -0.2046755732024391 -0.3320651923316272
N 0.0841731080710599 0.0094062061589850 0.4015872447437880 0.9769593393400061
O 0.1961159845323692 -0.5162949952396785 -0.0962369003093053 -0.1970026432733326
O 0.2271949063006097 0.4881893962676878 -0.0743908912222454 -0.1946060569702309
N 0.0232536023719527 0.0002502193932817 0.1843072738923916 0.1283355164991325
N 0.0371910583039939 0.0058581204062661 -0.1468662104651727 0.1235072004109040
