21
s                      x[A]                      y[A]                      z[A]                      q[e]
N 1.9102212280108866 1.3238648361768002 -1.0066172779563569 0.0707249461841811
O 1.6421755715691257 -0.0780485600709253 -0.3679124422387020 -0.3496602100029151
N 1.5343650454085322 0.3364795395287775 -0.0687446362602208 0.9824851761690530
N 3.1173693326169212 -0.4095183664224653 0.0629270770937212 0.1071394941056757
O 1.6041401112631308 0.3387100496945177 0.1150223389030664 -0.8194842575378962
N 0.6602582166739697 -0.2809796608578773 0.1065004006252286 0.3116552922920345
N 0.9139463427528552 -1.6293341750015331 0.9211552796311452 0.0918298459672651
N 1.4186211437380902 -0.5920158670088134 0.3114412092126403 0.5593901217632046
O 1.0849910787017656 -0.4832259442847088 0.2282751554975412 -0.9963138680841535
N -1.2448667146944996 -0.5083958604128080 -0.2036637267567583 0.9989733053171830
O -1.2897922044898462 -0.5797775210821926 -0.2375727641400307 -0.8354521971080898
N -1.6776906941015313 -1.2694203501485433 -0.2481079593011996 0.2899344186932475
O -1.4292147741124039 -0.9705147102273058 -0.1814380678117972 -0.8678253524624289
N -0.2382097006902864 0.2918570716874668 0.0294537886290652 0.9219570073558310
O -0.4087648153212348 0.2733766324409017 -0.1766409077646278 -0.9704818863270434
O -0.6123437700365690 0.3417177375000654 0.4635645878052606 -0.3320651923316272
N -0.8037043137332631 -0.2016888388676217 -0.0345240023373775 0.9769593393400061
O -0.7683182111674070 1.1357196204150632 -0.4227016016813093 -0.1970026432733326
O -0.9863704788015113 0.9998303284076485 0.5491108026285866 -0.1946060569702309
N -2.1466425628664534 1.5348387076588850 -0.1171505567285203 0.1283355164991325
N -0.1188253534843539 2.1802690905358864 0.3568235016655373 0.1235072004109040
