25
s                      x[A]                      y[A]                      z[A]                      q[e]
N 1.7724588147878484 1.0824274569460088 -1.0058267858793621 0.1158659338886357
O 1.7136323282150689 -0.5058218586408300 -0.4258963243979510 -0.2341991647481463
N 3.3085419538006944 -0.5252125573782910 -0.1187717920004057 0.0569852111266852
N 2.1176596724418957 -0.4219808871838649 0.0151239681920131 0.3189271149812888
O 1.9034793110669421 -0.1116382747118617 0.2235574904690316 -0.2877498234141676
N 1.3438532659323654 -0.7802804215882344 0.5056917370051435 0.5692545008206258
O 0.9479747019161037 -0.3834089666325280 -0.1681717522869081 -0.2058946535748549
O 1.1111793427977701 -0.5854140335449154 0.5261233838785579 -0.9992971180892700
N 0.6903407848315097 -0.3083196265273327 0.2773280697385319 0.6691943173322236
N 0.9775530939314148 -1.7757009413277594 1.1321211086288976 0.0628076875181509
N -0.7109853259713765 1.6129325777740353 0.1239116339965821 0.7576134719858190
O -0.6473047390565330 1.2642888903081901 0.0439752015887238 -0.9235083265987739
N -0.6962857770847306 0.8401047693878937 0.0911827194561609 0.9955526175656415
O -0.7125356807811499 1.4115160113791450 0.1660746145073792 -0.9936641819349231
O -0.4841775907968628 -0.2115824235599501 0.2256177545615292 -0.9934394819660318
N -0.5070285349087760 0.2110838659411373 0.0619610168123843 0.8475065253219278
N -0.4124563911771721 -0.4857610985559049 0.1324549873087770 0.9207393412409772
O -0.6120545029359505 -0.3190308697332105 -0.1758313259810478 -0.6738758902636315
N -2.7633313380776174 -0.2612125848754235 -0.4822886694850488 0.1207489421105395
N -1.0437314123372023 -0.7708900992137429 -0.1612347981454402 0.4308753055723465
O -1.3909329310138148 -0.5480156791774524 0.0672037619577993 -0.7095764258838037
N -1.5034592961151301 -0.3438752980819306 -0.1561793761335475 0.9977500474782615
O -1.4112743081243062 -0.5248631317880168 -0.2843974261399883 -0.9963537733476465
O -1.6613122406590641 -2.0345802710544922 0.0674464484586823 -0.1586318904925156
N -1.6211076252353238 -1.9784093765595294 -0.0933463078811824 0.3123697133706422
