25
s                      x[A]                      y[A]                      z[A]                      q[e]
N 0.0653702941748980 -0.0035741469568266 0.2443855220318812 0.1158659338886357
O -0.1738644054985840 0.4400598830072012 0.3070548514904500 -0.2341991647481463
N -0.0838815677788258 -0.0061522141602067 -0.3910042652820116 0.0569852111266852
N -0.5105810871060334 -0.0325443566243783 0.1396230418977324 0.3189271149812888
O -0.2397786568050204 -0.3395387039225052 0.2739763522161615 -0.2877498234141676
N 0.0398295450727357 0.1148469832213285 -0.5524047091952782 0.5692545008206258
O -0.1602595626815705 -0.4970909576558947 0.0424188754751057 -0.2058946535748549
O -0.0730353289711463 0.1671659520674195 -0.2748227184325610 -0.9992971180892700
N -0.1841798974329988 -0.0182173322435908 0.2438924571783646 0.6691943173322236
N 0.0174695157697288 -0.0207941107368867 0.3799640466340218 0.0628076875181509
N 0.0594903294620687 0.0046346345886446 0.2967992824856730 0.7576134719858190
O 0.0359242106617062 -0.0753693170949181 -0.0568127605012683 -0.9235083265987739
N 0.1083568225371120 -0.0099231338760693 -0.4751788371726930 0.9955526175656415
O 0.0693340123620223 0.0517240803423140 0.0967132016367676 -0.9936641819349231
O -0.0430827512049851 0.1161404963772173 -0.1240305954354961 -0.9934394819660318
N -0.0259104014870991 -0.0526840894104169 0.2968682705369790 0.8475065253219278
N -0.0780175873135227 0.0198629999220946 -0.4042222769715811 0.9207393412409772
O 0.1556572457212733 -0.2567497116636300 -0.2265700701794256 -0.6738758902636315
N -0.0645018169904802 0.0228428927256093 0.2205344431936974 0.1207489421105395
N 0.2613488296537523 0.0756594878361555 -0.4891270993442466 0.4308753055723465
O 0.3494928680223042 -0.2119454837840777 -0.1259190512240153 -0.7095764258838037
N 0.4479959727191001 -0.0079055227793102 0.1040816815977349 0.9977500474782615
O 0.3051744917834117 0.1261763710146561 -0.0349097089554381 -0.9963537733476465
O -0.0341341466486263 -0.3707244929617672 -0.1403154662933159 -0.1586318904925156
N -0.0307545437530930 -0.2017089591535967 -0.0950582171843182 0.3123697133706422
