21
s                      x[A]                      y[A]                      z[A]                      q[e]
N -0.1559362099558998 -1.1101811354411586 -0.1218427392262080 0.0690680479201058
O -0.4845911304842110 0.1997993147743914 0.5030429729687482 -0.3117950550350966
N -0.4565437070271363 -0.1234311695806087 0.2993427918100343 0.5776243102962968
N 0.0918651805342823 0.2394864744968685 -0.4341022424719930 0.0604184539076988
O -0.1879231660712779 -0.3485243490834620 0.2508797691171800 -0.3968494342195521
O 0.2139237110344722 -0.2613512669536478 0.0860065028922536 -0.9828651838991298
N 0.3083770897413496 -0.2398684155000310 0.2818144652105165 0.7759263489545838
N -0.1387332329218380 -0.8287702336239506 -0.4832236935856741 0.9970342621901004
O -0.9694674672334732 -0.5543405920596514 -0.2921693423437750 -0.3970377457969525
O -0.1543759055910967 -0.6176077309544595 -0.3086336782856324 -0.3893757401670396
N 0.2195070503946993 0.2092350263790177 0.4562044908191616 0.1691966627363242
O 0.1659481623685604 0.1656023936522633 0.0059793042357579 -0.6800109224217911
O 0.2103641065909880 -0.4284287926717925 -0.2853973233170317 -0.9821368279659007
N 0.1236073336498810 -0.3460868307843415 -0.4576179982546871 0.8921713087406896
O 0.3144377375744494 0.2618777937513667 -0.3458844819797253 -0.3335771210350215
N 0.1561981012462200 -0.0516743675276803 0.3271220970431729 0.9988617281482304
N -0.2467400060282461 -0.1367340022791218 0.2482648868068293 0.0655379221577991
N 0.1884103911904914 0.0351225591021312 0.0702162666004282 0.9908754307264420
O 0.2368497143687490 0.4035912832550974 0.0074930982054763 -0.6595771554465193
O 0.0877334397420193 -0.2988560311691761 -0.0631123069383859 -0.5578053818499882
N 0.2874958816060830 0.4763264103222847 -0.3479166246232506 0.0943160920587207
