21
s                      x[A]                      y[A]                      z[A]                      q[e]
N       -2.1047079365113763        1.6064492713202092       -0.2316749857494011        0.0690680479201058
O       -1.8693805401040724       -0.2073028882533595        0.3774475214296466       -0.3117950550350966
N       -1.9832739963461552       -0.3400307548116922        0.0376682211808405        0.5776243102962968
N       -3.3221504560024666       -0.5441805695663983        0.0263755275802404        0.0604184539076988
O       -1.8403836102802071       -0.3153213395349370       -0.2852155144543329       -0.3968494342195521
O       -0.9310812751092548       -0.1013045566004276        0.1283194747517981       -0.9828651838991298
N       -0.7647826385169637        0.0428660132012729        0.1176197024291035        0.7759263489545838
N       -1.0054128621651512       -1.3491221866424330        0.1870310710813665        0.9970342621901004
O       -1.0745183266172964       -1.3242940644272585       -0.2102831919316686       -0.3970377457969525
O       -1.0592546267744618       -1.3350501075647137        0.4523341211650855       -0.3893757401670396
N        1.7479448344662136       -1.2960558991380509       -0.1261178788223550        0.1691966627363242
O        1.4366825648314205       -0.9691522125156483       -0.0750358988974762       -0.6800109224217911
O        0.3794750552923967        0.4153759385664098       -0.3408912652807130       -0.9821368279659007
N        0.2332353020032528        0.4989424854277571       -0.2151638472218345        0.8921713087406896
O        0.5937349783527098        0.4877761625131878        0.3218240168810061       -0.3335771210350215
N        0.7791621480144676       -0.1234719252332526       -0.0839351898658414        0.9988617281482304
N        2.3402314875191847        1.6300802317003888       -0.0272961357905095        0.0655379221577991
N        1.1197064189259993        1.0694502201286264        0.0108171522254540        0.9908754307264420
O        0.9782606630438967        1.0595477464966019       -0.3382129906519512       -0.6595771554465193
O        1.0574396138764226        1.1083721981253998        0.3768291727309434       -0.5578053818499882
N       -0.0861500338298180        2.2745498643854343       -0.0004164987330547        0.0943160920587207

        RMSE         3.218440966E+00 kcal/mol

Coordinates in bohr
s                   x[bohr]                   y[bohr]                   z[bohr]                      q[e]
+       -3.9773215740839838        3.0357491572364901       -0.4378022731857133        0.0690680479201058
-       -3.5326172450571307       -0.3917456838152382        0.7132724422349066       -0.3117950550350966
+       -3.7478446848364828       -0.6425650008267999        0.0711826216649582        0.5776243102962968
+       -6.2779545094094980       -1.0283522392761439        0.0498425235411137        0.0604184539076988
-       -3.4778209892109055       -0.5958709732335287       -0.5389792090502477       -0.3968494342195521
-       -1.7594886104985461       -0.1914378672357494        0.2424886638434990       -0.9828651838991298
+       -1.4452297323020766        0.0810050250406656        0.2222690245488525        0.7759263489545838
+       -1.8999549525048167       -2.5494714425329978        0.3534375012948184        0.9970342621901004
-       -2.0305453540919327       -2.5025530913369227       -0.3973776415379370       -0.3970377457969525
-       -2.0017011417277817       -2.5228790670603232        0.8547876062016688       -0.3893757401670396
+        3.3031370195498626       -2.4491906926549105       -0.2383282504979287        0.1691966627363242
-        2.7149365767516955       -1.8314322555360778       -0.1417972984937729       -0.6800109224217911
-        0.7171039259455959        0.7849467629955104       -0.6441911299413384       -0.9821368279659007
+        0.4407508435745934        0.9428646498136943       -0.4066007433491175        0.8921713087406896
-        1.1219965001912537        0.9217633576767343        0.6081592524998184       -0.3335771210350215
+        1.4724030670707786       -0.2333281228738531       -0.1586145211347436        0.9988617281482304
+        4.4223965815840387        3.0804052004365747       -0.0515822209273703        0.0655379221577991
+        2.1159384726872883        2.0209680208536906        0.0204414551634947        0.9908754307264420
-        1.8486447324617490        2.0022550577245966       -0.6391299244042163       -0.6595771554465193
-        1.9982712644363139        2.0945198995286880        0.7121039325443242       -0.5578053818499882
+       -0.1627999696372828        4.2982763023857151       -0.0007870685370736        0.0943160920587207
