11

C  0.67074  1.34910 -0.00076
C  0.61343 -0.15734  0.00002
H  0.18863  1.76503 -0.89136
H  1.71747  1.65029  0.00807
H  0.17252  1.76812  0.87936
O -0.62491 -0.75401 -0.00488
O  1.60452 -0.87658  0.00240
C -1.85328  0.02377  0.00256
H -1.92902  0.62926  0.90977
H -2.64807 -0.71843 -0.01128
H -1.92373  0.65727 -0.88573
