21
s                      x[A]                      y[A]                      z[A]                      q[e]
N 0.0271001007548135 -0.0444431245713309 0.3734984533890003 0.0707249461841811
O 0.1140948934357073 0.2963930707715352 0.3037696668023636 -0.3496602100029151
N 0.3620708629779306 -0.1854938214885781 0.3289133398232212 0.9824851761690530
N 0.0398459712079313 -0.0099903883433831 -0.1888467681930317 0.1071394941056757
O 0.2691945363367984 -0.3220874205796721 0.3088779552405301 -0.8194842575378962
N 0.0863534174376687 0.1289014619170706 0.2875195430916147 0.3116552922920345
N 0.0306454605883704 -0.0190590437679441 0.2515276745633410 0.0918298459672651
N 0.0708473526354876 0.0452067991819497 -0.5519721472617207 0.5593901217632046
O 0.0674053948839742 0.0524663122388930 -0.1931748316590622 -0.9963138680841535
N 0.2167691622261494 0.0812993118024246 -0.4255768570079332 0.9989733053171830
O 0.2058172474910669 0.1008966764815581 -0.3364431231196503 -0.8354521971080898
N 0.0281109509999307 0.0046432993200403 0.4269615095575265 0.2899344186932475
O 0.0414384598368800 -0.0009331945073273 0.0346155649778131 -0.8678253524624289
N -0.0056094781590729 0.0786131451772259 -0.3401980868399270 0.9219570073558310
O 0.1254181372610492 0.2399620049328967 -0.1881703542981736 -0.9704818863270434
O 0.2601475841809965 -0.4177501135254751 -0.2083420583837149 -0.3320651923316272
N 0.0836461407101953 0.0121700942410565 0.4015902938839485 0.9769593393400061
O 0.1965787429644159 -0.5158101515070472 -0.0978682578243388 -0.1970026432733326
O 0.2271511627852990 0.4881887053320417 -0.0789119611668000 -0.1946060569702309
N 0.0221587140249018 0.0022895346410364 0.1859671964178514 0.1283355164991325
N 0.0340395190842280 0.0045634557913312 -0.1445641072349851 0.1235072004109040
