21
s                      x[A]                      y[A]                      z[A]                      q[e]
N 0.0148201866687605 0.9529068798061353 0.0171144987337327 0.0707249461841811
O 0.1111424464578371 0.1298775794808153 0.2592621042789265 -0.3496602100029151
N 0.2109966235563084 -0.3646122534697518 0.4715989506497995 0.9824851761690530
N 0.1879711150234281 -0.0009782848355990 -0.2335141988766319 0.1071394941056757
O 0.0522869303537903 -0.4436561815077211 0.5373403655845812 -0.8194842575378962
N 0.2236680787037276 -0.1285346224200826 0.3343285336004930 0.3116552922920345
N 0.0145078431999652 1.0078132308519534 0.0185454679304787 0.0918298459672651
N 0.3166760092652759 -0.3215258243408633 -0.4835296547656590 0.5593901217632046
O 0.2315460508700345 -0.2617636383796814 -0.1444501827996616 -0.9963138680841535
N 0.1335087469501215 -0.0151843796570538 -0.4018667656299891 0.9989733053171830
O 0.0962673293580184 -0.0054574036232985 -0.3075258148321103 -0.8354521971080898
N -0.1278561632550692 -0.1373698769689421 0.4294257720332609 0.2899344186932475
O -0.0880320665753528 -0.1385268857177372 0.0441515318004665 -0.8678253524624289
N 0.0393532907150484 -0.0287232471458155 -0.3384710091635381 0.9219570073558310
O 0.1155964174374300 0.1470376567831213 -0.1535615509665828 -0.9704818863270434
O 0.3515322109130266 -0.4852871201941450 -0.1645200931679364 -0.3320651923316272
N 0.0652926185948044 -0.0948288690749918 0.4138538701364433 0.9769593393400061
O 0.3530365445249978 -0.6800444177533457 -0.1008591156237739 -0.1970026432733326
O 0.2344016355945510 0.2945618784852341 0.1129750376628433 -0.1946060569702309
N 0.2541313565921632 -0.4559865240928977 0.2632029466702075 0.1283355164991325
N -0.1302419667808191 -0.2949667368900227 -0.0136641997742480 0.1235072004109040
