21
s                      x[A]                      y[A]                      z[A]                      q[e]
N       -1.9135794767846452        1.3675142971204646        0.5980434118045276        0.0707249461841811
O       -1.5832930961592919       -0.1524660373736874        0.3720136426636571       -0.3496602100029151
N       -1.4965406884510888        0.1851332959681197       -0.0508679025863082        0.9824851761690530
N       -3.0364787527504244       -0.6667280058143981        0.1165342729604250        0.1071394941056757
O       -1.5880339659828724        0.1258055436919198       -0.2051500798869074       -0.8194842575378962
N       -0.4944888097673696       -0.6229259407450434       -0.2847665061991657        0.3116552922920345
N       -0.7977263450458774       -1.9342637674938001       -0.5360523253236303        0.0918298459672651
N       -1.2731704802650778       -0.9535391674791704       -0.2588774111333652        0.5593901217632046
O       -0.9642536204526371       -0.7756566781521622       -0.2590317826297089       -0.9963138680841535
N        0.7551311209553605        0.8793573115457767       -0.1454841642594835        0.9989733053171830
O        0.7319775535935782        0.9751392905591443       -0.1683925209484401       -0.8354521971080898
N        0.5589104806434132        1.7343382383621309       -0.0859637076571322        0.2899344186932475
O        0.5584389046892096        1.3458811271869615       -0.0800429739734230       -0.8678253524624289
N        0.5283996729968183       -0.4085010316485022       -0.1562589161372996        0.9219570073558310
O        0.6630797855014425       -0.2374471301999188       -0.3172363387135535       -0.9704818863270434
O        0.7474582106832794       -0.2582121466250952        0.3525670569295316       -0.3320651923316272
N        0.6153432299431197        0.3376804457555664       -0.0843753031290957        0.9769593393400061
O        1.5668750029613314       -0.5863214405834157       -0.4015359541425598       -0.1970026432733326
O        1.4105149261206145       -0.5268122401399623        0.5898166417317771       -0.1946060569702309
N        2.7391988517281511       -0.0440311176816548        0.3064377723501105        0.1283355164991325
N        1.6508827550079539       -1.9222085768183170        0.1658614392095631        0.1235072004109040

        RMSE         4.441259433E-01 kcal/mol

Coordinates in bohr
s                   x[bohr]                   y[bohr]                   z[bohr]                      q[e]
+       -3.6161411304198658        2.5842274942056407        1.1301382594449503        0.0707249461841811
-       -2.9919903280692273       -0.2881190540700868        0.7030038995682457       -0.3496602100029151
+       -2.8280520367766666        0.3498512260830722       -0.0961264044645904        0.9824851761690530
+       -5.7381132284700778       -1.2599333311618668        0.2202178601245489        0.1071394941056757
-       -3.0009492736322421        0.2377380226420471       -0.3876774656020494       -0.8194842575378962
+       -0.9344484225639443       -1.1771594244513035       -0.5381307064199120        0.3116552922920345
+       -1.5074843151991804       -3.6552287749595203       -1.0129920837764832        0.0918298459672651
+       -2.4059435187186078       -1.8019278764326958       -0.4892074071096075        0.5593901217632046
-       -1.8221752581366450       -1.4657786890899751       -0.4894991269592741       -0.9963138680841535
+        1.4269910074156000        1.6617444852404128       -0.2749252260415440        0.9989733053171830
-        1.3832371062744924        1.8427461933300271       -0.3182157461679719       -0.8354521971080898
+        1.0561877370640498        3.2774242794134247       -0.1624478642009018        0.2899344186932475
-        1.0552965876632536        2.5433467278058313       -0.1512592990769184       -0.8678253524624289
+        0.9985306667454609       -0.7719550717826497       -0.2952865561603789        0.9219570073558310
-        1.2530391939250487       -0.4487100453537730       -0.5994897972115907       -0.9704818863270434
-        1.4124913084161548       -0.4879502393879897        0.6662551784555133       -0.3320651923316272
+        1.1628301777471171        0.6381235604005387       -0.1594462146664758        0.9769593393400061
-        2.9609646284228397       -1.1079869441865504       -0.7587929828538318       -0.1970026432733326
-        2.6654869062383435       -0.9955308534034499        1.1145919171103391       -0.1946060569702309
+        5.1763356329347712       -0.0832067534161312        0.5790834642371023        0.1283355164991325
+        3.1197162722063259       -3.6324477661926844        0.3134326948803468        0.1235072004109040
