25
s                      x[A]                      y[A]                      z[A]                      q[e]
N -1.8267814500356352 1.1833938882220103 0.7780842961758341 0.1158659338886357
O -1.7119967517160661 -0.4731252495481564 0.4556124839691119 -0.2341991647481463
N -3.2963502056165863 -0.5900326491973323 0.1241195951374698 0.0569852111266852
N -2.1065904667001369 -0.4710486552044905 -0.0016158940926291 0.3189271149812888
O -1.8952539588437927 -0.1907551669627144 -0.2514212951947687 -0.2877498234141676
N -1.3183951910827139 -0.8590228665719284 -0.4214879884320482 0.5692545008206258
O -0.9152154633457881 -0.4449066836419402 0.2375057031800729 -0.2058946535748549
O -1.0957147703371164 -0.6538321845800947 -0.4504315564592104 -0.9992971180892700
N -0.6785591143018598 -0.3580898178141924 -0.2174012542513664 0.6691943173322236
N -0.9013465152112866 -1.9478943867767553 -0.8688187217185014 0.0628076875181509
N 0.6406321971233280 1.6209547745511006 -0.1136755757763050 0.7576134719858190
O 0.5948686482056712 1.2698612551174624 -0.0322108018684411 -0.9235083265987739
N 0.6598941788050439 0.8481710817215298 -0.0823001051379760 0.9955526175656415
O 0.6490780562246701 1.4198193825522576 -0.1563601783094110 -0.9936641819349231
O 0.4875044443990096 -0.2096890943626926 -0.2111051862745014 -0.9934394819660318
N 0.4987300144797575 0.2134307189957076 -0.0474100554427305 0.8475065253219278
N 0.4310724667435934 -0.4867358520177641 -0.1159332183935828 0.9207393412409772
O 0.6351338580855873 -0.3119563684034092 0.1848821852243826 -0.6738758902636315
N 2.7933056703125345 -0.1646306186498600 0.4080142295072735 0.1207489421105395
N 1.0860626218973630 -0.7459028436856925 0.1491945116802639 0.4308753055723465
O 1.4145307522374289 -0.5074106130273128 -0.0908809362239151 -0.7095764258838037
N 1.5266822698635629 -0.2996122924334030 0.1292949013986152 0.9977500474782615
O 1.4472225795047344 -0.4849255837952238 0.2598310188553262 -0.9963537733476465
O 1.7489344921460510 -1.9810184862358933 -0.1099121906198297 -0.1586318904925156
N 1.7124738113137941 -1.9273146147863915 0.0526067434330686 0.3123697133706422
