25
s                      x[A]                      y[A]                      z[A]                      q[e]
N       -2.0301731812087311        1.4167132728892908        0.0119734549506313        0.1158659338886357
O       -1.8443169799710932       -0.2032270386719593        0.4166129316393432       -0.2341991647481463
N       -3.3438802646851169       -0.5799734110428759        0.0170830464819770        0.0569852111266852
N       -2.1452646337271695       -0.4364652706743118        0.0014536330872006        0.3189271149812888
O       -1.9109998115889442       -0.2503132492928735       -0.3726613688394139       -0.2877498234141676
N       -1.3576099209102626       -0.8043253646734471        0.1074319282085364        0.5692545008206258
O       -0.7477127039936861       -0.6776209084392919       -0.4863710909664657       -0.2058946535748549
O       -1.0777140710288475       -0.7147889259973847        0.1704637179197978       -0.9992971180892700
N       -0.5571830433499513       -0.6464084481947223       -0.0202566712365304        0.6691943173322236
N       -0.8166554654776415       -2.0482702759412486       -0.0083363812271534        0.0628076875181509
N        1.7237568433276920       -1.0692131838686425        0.0052724934060437        0.7576134719858190
O        1.4615670972750054       -0.8522950550981466       -0.0732070505927406       -0.9235083265987739
N        1.1981018904768048       -0.5054439980663321       -0.0063624703125595        0.9955526175656415
O        1.5912379378245061       -0.9323440929542994        0.0501102025621838       -0.9936641819349231
O        0.3430378972778871        0.1152495996892697        0.1100224663847403       -0.9934394819660318
N        0.6510019844872145       -0.1649286331281838       -0.0481222484964404        0.8475065253219278
N        0.1248197599477755        0.2724136265751233        0.0215032194791089        0.9207393412409772
O        0.4082832003233460        0.3279809078340378       -0.2502086260708888       -0.6738758902636315
N        2.0787310839236541        1.7303209664370172       -0.0229258643039609        0.1207489421105395
N        0.4381022307200599        0.9547081183537806       -0.0742072406264199        0.4308753055723465
O        0.8016924509172232        0.9610475798646813        0.2041875817848409       -0.7095764258838037
N        1.0441234261137089        0.9252144385048289        0.0091693006595112        0.9977500474782615
O        0.8772572965367511        1.0238690697981909       -0.1232951138135360       -0.9963537733476465
O        0.0201680651179238        2.2470091121817841        0.3660722180754466       -0.1586318904925156
N        0.0769801288934928        2.2143341126527134        0.2005712265984224        0.3123697133706422

        RMSE         6.434910433E-01 kcal/mol

Coordinates in bohr
s                   x[bohr]                   y[bohr]                   z[bohr]                      q[e]
+       -3.8364712997339692        2.6772000840617585        0.0226265506322003        0.1158659338886357
-       -3.4852539806768568       -0.3840434443778298        0.7872843411224429       -0.2341991647481463
+       -6.3190178965783028       -1.0959909069186142        0.0322822792394023        0.0569852111266852
+       -4.0539626243749511       -0.8247998248482694        0.0027469684217130        0.3189271149812888
-       -3.6112662697046152       -0.4730234867369814       -0.7042279246447163       -0.2877498234141676
+       -2.5655109357248591       -1.5199546549918077        0.2030169214439810        0.5692545008206258
-       -1.4129722310735844       -1.2805179338341968       -0.9191081572667562       -0.2058946535748549
-       -2.0365844357967267       -1.3507553076452001        0.3221297411957157       -0.9992971180892700
+       -1.0529233536805045       -1.2215349322702198       -0.0382795608504816        0.6691943173322236
+       -1.5432551686110225       -3.8706698524448919       -0.0157534773967279        0.0628076875181509
+        3.2574283407730560       -2.0205200872405182        0.0099635685357050        0.7576134719858190
-        2.7619615278301408       -1.6106042322174867       -0.1383412760728149       -0.9235083265987739
+        2.2640844433944314       -0.9551507281018038       -0.0120233263720936        0.9955526175656415
-        3.0070039029266082       -1.7618749903720214        0.0946945589337426       -0.9936641819349231
-        0.6482476765081420        0.2177901794813694        0.2079123291145495       -0.9934394819660318
+        1.2302154578103810       -0.3116699468583785       -0.0909378701994971        0.8475065253219278
+        0.2358751613466860        0.5147871470697234        0.0406351956311257        0.9207393412409772
-        0.7715434302365590        0.6197940901853574       -0.4728257775010672       -0.6738758902636315
+        3.9282324370917983        3.2698327357034693       -0.0433236047238960        0.1207489421105395
+        0.8278932310130503        1.8041368734398233       -0.1402313613098812        0.4308753055723465
-        1.5149791690805943        1.8161167194783068        0.3858586077928707       -0.7095764258838037
+        1.9731073165296120        1.7484018960933703        0.0173274670084559        0.9977500474782615
-        1.6577760320140036        1.9348321302458460       -0.2329939977147353       -0.9963537733476465
-        0.0381121195532753        4.2462318234317173        0.6917762343014668       -0.1586318904925156
+        0.1454713607111444        4.1844850231723099        0.3790246869181608        0.3123697133706422
