25
s                      x[A]                      y[A]                      z[A]                      q[e]
N       -1.9344399522290263        1.2972728860816711        0.0035626955536804        0.1158659338886357
O       -1.7772982804002184       -0.3368098853135514        0.4400602723443783       -0.2341991647481463
N       -3.2848142662225173       -0.6804509749087585        0.0061464409178773        0.0569852111266852
N       -2.0903012958723304       -0.5452355277589161       -0.0325433308270013        0.3189271149812888
O       -1.8388311819269512       -0.3774641513477400       -0.3395381916518286       -0.2877498234141676
N       -1.2784407711738666       -0.9727772054216663       -0.1148421186956075        0.5692545008206258
O       -0.8263771158964091       -0.5374688670088066        0.4970924313115921       -0.2058946535748549
O       -1.0758123565964479       -0.7520245124275330       -0.1671631472743023       -0.9992971180892700
N       -0.6544914687521824       -0.4296772168047040        0.0182187317763498        0.6691943173322236
N       -0.7587208823042870       -2.1670938576362548       -0.0207787791281818        0.0628076875181509
N        0.5330367098895686        1.6299694859603897       -0.0046614325779781        0.7576134719858190
O        0.5195629512280654        1.2758309098245530        0.0753498035436439       -0.9235083265987739
N        0.6038973025712103        0.8596991250295265        0.0099134593816584        0.9955526175656415
O        0.5485827573353176        1.4302444925772351       -0.0517464744788867       -0.9936641819349231
O        0.4826803885867808       -0.2018042508125948       -0.1161293689381778       -0.9934394819660318
N        0.4878410113508562        0.2194166950004727        0.0526864138522544        0.8475065253219278
N        0.4557486321989536       -0.4828761781270151       -0.0198462983949110        0.9207393412409772
O        0.6842588716256404       -0.2986267928222542        0.2567654527559511       -0.6738758902636315
N        2.8512246102202008       -0.0221653904758441        0.0228419576298960        0.1207489421105395
N        1.1638269608929346       -0.7068389157917847        0.0756829168723022        0.4308753055723465
O        1.4232922192139554       -0.4378322462938499       -0.2119266603499037       -0.7095764258838037
N        1.5647347501777844       -0.2314385408464033       -0.0078895235181596        0.9977500474782615
O        1.5238864345025369       -0.4264964497655330        0.1261938967191545       -0.9963537733476465
O        1.8341537802804475       -1.8835917172477639       -0.3707031401643701       -0.1586318904925156
N        1.8277040536907536       -1.8386685140493870       -0.2016877626911288        0.3123697133706422

        RMSE         3.504024551E-01 kcal/mol

Coordinates in bohr
s                   x[bohr]                   y[bohr]                   z[bohr]                      q[e]
+       -3.6555617158565843        2.4514904646766107        0.0067325188648423        0.1158659338886357
-       -3.3586069932035656       -0.6364784395894729        0.8315933934252586       -0.2341991647481463
+       -6.2073993361572768       -1.2858659843783300        0.0116150899810957        0.0569852111266852
+       -3.9500969688882961       -1.0303458213338108       -0.0614979824732015        0.3189271149812888
-       -3.4748873247938561       -0.7133038682255919       -0.6416341913551675       -0.2877498234141676
+       -2.4159029251377087       -1.8382824993351794       -0.2170201520020184        0.5692545008206258
-       -1.5616264253899357       -1.0156689596067607        0.9393685542168665       -0.2058946535748549
-       -2.0329907163506609       -1.4211203681189943       -0.3158925666180036       -0.9992971180892700
+       -1.2368096273902649       -0.8119722621098565        0.0344284134104769        0.6691943173322236
+       -1.4337746732208252       -4.0952138790944179       -0.0392662017736430        0.0628076875181509
+        1.0072933965064030        3.0801959213184151       -0.0088088309246655        0.7576134719858190
-        0.9818316827556466        2.4109710019620882        0.1423904923045387       -0.9235083265987739
+        1.1412005097623270        1.6245958966015321        0.0187337231871849        0.9955526175656415
-        1.0366711685122416        2.7027703834153760       -0.0977866647230890       -0.9936641819349231
-        0.9121337405585762       -0.3813547649890045       -0.2194527024154054       -0.9934394819660318
+        0.9218859042194819        0.4146374609040053        0.0995628927132884        0.8475065253219278
+        0.8612400969080334       -0.9125037291678483       -0.0375040685704951        0.9207393412409772
-        1.2930618662872668       -0.5643228521578960        0.4852163841879285       -0.6738758902636315
+        5.3880336354814267       -0.0418865174631767        0.0431650440898152        0.1207489421105395
+        2.1993142135115646       -1.3357319656620215        0.1430199852644425        0.4308753055723465
-        2.6896324908094620       -0.8273830343893745       -0.4004833467442407       -0.7095764258838037
+        2.9569201368226872       -0.4373554570752870       -0.0149090387096802        0.9977500474782615
-        2.8797280075102236       -0.8059614835369400        0.2384719035035132       -0.9963537733476465
-        3.4660483167031986       -3.5594724777790736       -0.7005274087578653       -0.1586318904925156
+        3.4538600998645941       -3.4745799270558506       -0.3811346343425648        0.3123697133706422
