25
s                      x[A]                      y[A]                      z[A]                      q[e]
N 1.8738981311981686 1.2027174919318904 -0.9001689604739981 0.1158659338886357
O 1.7761611840218974 -0.3662990315683580 -0.3778264788126681 -0.2341991647481463
N 3.3647663125642326 -0.4183643415420628 0.0184276410729816 0.0569852111266852
N 2.1457616565640518 -0.3276873922067144 0.0220166298330498 0.3189271149812888
O 1.9153420842661548 -0.0175337277325478 0.3352396863514651 -0.2877498234141676
N 1.3612112322905032 -0.6944255995366637 0.2676305566750183 0.5692545008206258
O 0.6798182521346245 -0.6352449329754507 0.6626802487882365 -0.2058946535748549
O 1.1055196840430555 -0.5953266722459747 0.1056497167833022 -0.9992971180892700
N 0.5697945046765899 -0.5588619818534647 0.2272026027244888 0.6691943173322236
N 0.9124046877247609 -1.8202449235346625 1.0068980650902781 0.0628076875181509
N -1.5317336384158642 -1.0884978592852119 -0.2055258428110293 0.7576134719858190
O -1.3171301951960106 -0.8935931108809541 -0.1016106425092897 -0.9235083265987739
N -1.0694565159460443 -0.5327731126207540 -0.0914509227709612 0.9955526175656415
O -1.4066092291055148 -0.9593790174433641 -0.2197466433964311 -0.9936641819349231
O -0.3194866598153661 0.0965944644981709 -0.0100413967849966 -0.9934394819660318
N -0.6052589588056914 -0.1821995380801711 0.0438469036733157 0.8475065253219278
N -0.1423903896336726 0.2509988871066904 0.0944463557720718 0.9207393412409772
O -0.4629858765437411 0.2942054641070466 0.2834471880412307 -0.6738758902636315
N -2.1534973192182600 1.6449568478059917 -0.0894494214490872 0.1207489421105395
N -0.4995805532777861 0.9115617637175882 0.1916876582721415 0.4308753055723465
O -0.7954225734843146 0.9320501174725724 -0.1113112132280095 -0.7095764258838037
N -1.0382986913542975 0.8557204886431840 0.0095689917109100 0.9977500474782615
O -0.9130549209407742 0.9519884103587706 0.1583580678495763 -0.9963537733476465
O -0.1118978524202660 2.2305400324557181 -0.0057364672026897 -0.1586318904925156
N -0.1734095233661223 2.2050229863645807 0.1436417292023374 0.3123697133706422
