10

C         -1.220677       -1.171717        0.010811
C         -0.475698       -0.070226        0.069706
C         0.926213       0.125039        0.478011
C         1.976894       -0.129657        -0.315977
H         -2.268235       -1.129509        -0.262973
H         -0.781515       -2.138219        0.226176
F         -1.123486       1.183351        -0.175244
H         1.074243       0.579376        1.457301
H         1.852725       -0.539026        -1.314728
H         2.993769       0.056585        0.016121
