10

C         -1.395536       -1.032849        -0.141595
C         -0.492704       -0.083374        0.088811
C         0.923505       -0.185432        0.499980
C         1.952268       -0.075891        -0.352959
H         -2.415417       -0.787980        -0.413611
H         -1.118975       -2.077651        -0.064862
F         -0.919843       1.278996        -0.025199
H         1.107984       -0.321713        1.565065
H         1.799750       0.074415        -1.418203
H         2.980050       -0.132759        -0.007022
