21
s                      x[A]                      y[A]                      z[A]                      q[e]
N 0.0260546330402462 -0.0442995948460532 0.3734619171963649 0.0707249461841811
O 0.1146118558421527 0.2970242578504970 0.3042732472377181 -0.3496602100029151
N 0.3617408660689688 -0.1857242020739230 0.3297156441300066 0.9824851761690530
N 0.0388900415132708 -0.0105464501356773 -0.1884058507752682 0.1071394941056757
O 0.2693567974463140 -0.3210243028484784 0.3090490939078230 -0.8194842575378962
N 0.0884918665685411 0.1288972547569515 0.2883879670594123 0.3116552922920345
N 0.0320312587270237 -0.0196002144187945 0.2526717497886841 0.0918298459672651
N 0.0717902480370677 0.0452230309964380 -0.5502402595614913 0.5593901217632046
O 0.0650996331266898 0.0526052390215398 -0.1938064463400408 -0.9963138680841535
N 0.2180580943175289 0.0827474581215305 -0.4293874200562306 0.9989733053171830
O 0.2030015768790784 0.0990413545907152 -0.3338538934482060 -0.8354521971080898
N 0.0295176473265864 0.0064009352966138 0.4241816933998013 0.2899344186932475
O 0.0390566650958505 -0.0028075897069727 0.0367366339318051 -0.8678253524624289
N -0.0035542549668904 0.0789099830670727 -0.3431640538503463 0.9219570073558310
O 0.1224950541376665 0.2390564101866736 -0.1848611363666700 -0.9704818863270434
O 0.2582662490194882 -0.4181838330754541 -0.2049343510716726 -0.3320651923316272
N 0.0852218326011217 0.0134747255533790 0.3980293793200826 0.9769593393400061
O 0.1993614042630668 -0.5154594967388596 -0.0987688398490664 -0.1970026432733326
O 0.2301375473670670 0.4884884675755836 -0.0790409169949391 -0.1946060569702309
N 0.0203271995849079 0.0015464809961697 0.1861737121763261 0.1283355164991325
N 0.0329404070374557 0.0046637759889779 -0.1459163585448891 0.1235072004109040
