25
s                      x[A]                      y[A]                      z[A]                      q[e]
N 1.9921303247107749 1.3857347744082678 -0.0080728948933351 0.1158659338886357
O 1.8430723988181363 -0.2013468028963629 -0.4036616933388589 -0.2341991647481463
N 3.3465977051226838 -0.5829504268895185 -0.0075732688337344 0.0569852111266852
N 2.1229287004098483 -0.4114707663998917 -0.0178916090084633 0.3189271149812888
O 1.8964043223932447 -0.2576344962645867 0.3895031127471574 -0.2877498234141676
N 1.3043379306684739 -0.8164250862287192 -0.0738460662570938 0.5692545008206258
O 0.7259499724767460 -0.6773257548797538 0.4412291829074540 -0.2058946535748549
O 1.0442727502076412 -0.6738824773400494 -0.1739604066314781 -0.9992971180892700
N 0.5371102182819149 -0.6158586403923548 0.0147326739223440 0.6691943173322236
N 0.8064428537032339 -2.1009153118935573 -0.0198708310756636 0.0628076875181509
N -1.5842666900289875 -0.9937331749544580 -0.0056061404989216 0.7576134719858190
O -1.3545319399788631 -0.8151541632214955 0.0444149017682316 -0.9235083265987739
N -1.0876949203194186 -0.4684418293756810 -0.0026067731626072 0.9955526175656415
O -1.4621089489033710 -0.8762764478490095 -0.0453154872674206 -0.9936641819349231
O -0.3208895951168812 0.0909795574997906 -0.0812435118154983 -0.9934394819660318
N -0.6025452499561412 -0.1552167644464433 0.0262289553803321 0.8475065253219278
N -0.1209031694675581 0.2416454326709257 -0.0294556781119249 0.9207393412409772
O -0.4011289882776268 0.3043751235097803 0.2067208377635127 -0.6738758902636315
N -2.0911759168419404 1.7132599760712348 0.0225744041638821 0.1207489421105395
N -0.4275222031792593 0.9257214634317946 0.0578407655762766 0.4308753055723465
O -0.7731678110197578 0.9277706120278872 -0.1745792410960531 -0.7095764258838037
N -0.9837487786558557 0.8730947315508744 -0.0037783737298439 0.9977500474782615
O -0.8288263569808676 0.9762462490107151 0.0975278414022816 -0.9963537733476465
O -0.0643449144625512 2.1952755919748874 -0.3482359493609076 -0.1586318904925156
N -0.0748700541749058 2.1763742322593056 -0.1792491708120589 0.3123697133706422
