25
s                      x[A]                      y[A]                      z[A]                      q[e]
N 0.1115425463289088 -0.0081402770857687 0.2086986447488734 0.1158659338886357
O -0.1618506710686952 0.4037075961087467 0.3002252587825225 -0.2341991647481463
N -0.0792307768220474 -0.0076097848350069 -0.3946941677509063 0.0569852111266852
N -0.4819167474614946 0.0179285152968466 0.1587247460846943 0.3189271149812888
O -0.2369929532037968 -0.3894595579790562 0.2811855313110349 -0.2877498234141676
N -0.0335630072738954 0.0738860887905652 -0.5102023331193404 0.5692545008206258
O -0.1552532178057859 -0.4412056818097051 0.0720825859584501 -0.2058946535748549
O -0.0159931472553657 0.1739970446627723 -0.2141545817027925 -0.9992971180892700
N -0.1805128928794478 -0.0147137565895481 0.2690712090853564 0.6691943173322236
N 0.0251602247862136 0.0198455285246686 0.4477286413961194 0.0628076875181509
N 0.0145303035885435 0.0055195557651955 0.1220372623213273 0.7576134719858190
O -0.0155843995711077 -0.0444831008463183 -0.1673819189141329 -0.9235083265987739
N 0.0499734335229299 0.0025669717104415 -0.5999451358053357 0.9955526175656415
O 0.0147566733185517 0.0452398163224503 -0.0474256490723667 -0.9936641819349231
O -0.0769884582392950 0.0812632247833753 -0.1270552850323622 -0.9934394819660318
N -0.0597401036896268 -0.0262331611433802 0.2466289256669392 0.8475065253219278
N -0.1066600605947184 0.0294911538576781 -0.3756835311962112 0.9207393412409772
O 0.1325724424239218 -0.2066936023706505 -0.2168583420215280 -0.6738758902636315
N -0.0483711823547581 0.0226229819387652 0.2243798117317368 0.1207489421105395
N 0.2923337250280894 0.0578063872263227 -0.5025641744648279 0.4308753055723465
O 0.3778496460202220 -0.1746027992478978 -0.1676505407766475 -0.7095764258838037
N 0.4840613296162501 -0.0037975606863787 0.0222214710554838 0.9977500474782615
O 0.3450523107659867 0.0975079368553560 -0.1015437516947535 -0.9963537733476465
O -0.0198101187696208 -0.3482312021819186 -0.0749086881855021 -0.1586318904925156
N -0.0145965021900463 -0.1792448473392536 -0.0539086556014763 0.3123697133706422
