25
s                      x[A]                      y[A]                      z[A]                      q[e]
N        1.9853502996251096        1.3823553234472310       -0.0067912374270513        0.1158659338886357
O        1.8472068400723942       -0.1976944995194399       -0.4020112224104613       -0.2341991647481463
N        3.3465702293055033       -0.5852298715974517       -0.0052545944441843        0.0569852111266852
N        2.1186339052890308       -0.4138138261100898       -0.0183410994193277        0.3189271149812888
O        1.8974108502319955       -0.2553529807007395        0.3901952311158389       -0.2877498234141676
N        1.3015711401672949       -0.8173320267356824       -0.0776679830669740        0.5692545008206258
O        0.7265897548645832       -0.6777025020767756        0.4444517637410916       -0.2058946535748549
O        1.0432602597753275       -0.6678431878760402       -0.1670285038287564       -0.9992971180892700
N        0.5360112052839466       -0.6144039089986786        0.0108036397218093        0.6691943173322236
N        0.8072056956317911       -2.1019413756039862       -0.0236208809050313        0.0628076875181509
N       -1.5752708673839830       -0.9856717505585405       -0.0063125448510599        0.7576134719858190
O       -1.3480744808461973       -0.8091836742679747        0.0439708237612099       -0.9235083265987739
N       -1.0816494753530022       -0.4620867953548530       -0.0022339821969117        0.9955526175656415
O       -1.4546377222043620       -0.8692040922208082       -0.0439361877550617       -0.9936641819349231
O       -0.3190250590116362        0.0914544259775467       -0.0805989102043198       -0.9934394819660318
N       -0.5994891956742826       -0.1519186826097245        0.0262486362175305        0.8475065253219278
N       -0.1182590174068629        0.2430904425371428       -0.0285010452802351        0.9207393412409772
O       -0.3995289028122210        0.3033191237460905        0.2035644534118350       -0.6738758902636315
N       -2.0938981093239764        1.7100406742055736        0.0210393514842944        0.1207489421105395
N       -0.4253320544498224        0.9245539700499853        0.0584862513712822        0.4308753055723465
O       -0.7707620762371731        0.9257747514532381       -0.1744427453638959       -0.7095764258838037
N       -0.9800201392908872        0.8693802592346717       -0.0024315436412290        0.9977500474782615
O       -0.8249252678929753        0.9735543704092450        0.0951389553213413       -0.9963537733476465
O       -0.0673822071770310        2.1935487509674680       -0.3459404895898426       -0.1586318904925156
N       -0.0741909647007985        2.1714156960970126       -0.1789264287656227        0.3123697133706422

        RMSE         4.526174866E-01 kcal/mol

Coordinates in bohr
s                   x[bohr]                   y[bohr]                   z[bohr]                      q[e]
+        3.7517683293870965        2.6122729693839388       -0.0128335787900859        0.1158659338886357
-        3.4907150248092034       -0.3735884606011957       -0.7596911097162862       -0.2341991647481463
+        6.3241011929980040       -1.1059241777560347       -0.0099297443998606        0.0569852111266852
+        4.0036378411054274       -0.7819947982758995       -0.0346596547423230        0.3189271149812888
-        3.5855868544105522       -0.4825471988437161        0.7373621222686559       -0.2877498234141676
+        2.4596129877160702       -1.5445336840958150       -0.1467712167132769        0.5692545008206258
-        1.3730556422576019       -1.2806721234626210        0.8398921094473512       -0.2058946535748549
-        1.9714761685493569       -1.2620407198383938       -0.3156381273813339       -0.9992971180892700
+        1.0129143781632131       -1.1610551184182170        0.0204159202323369        0.6691943173322236
+        1.5253976916537555       -3.9720935316596186       -0.0446369957525655        0.0628076875181509
+       -2.9768305127681267       -1.8626496581562255       -0.0119289809231722        0.7576134719858190
-       -2.5474915655180577       -1.5291355295581490        0.0830928144194602       -0.9235083265987739
+       -2.0440212721623214       -0.8732174894111506       -0.0042216145213118        0.9955526175656415
-       -2.7488669067260498       -1.6425576814245166       -0.0830273618537605       -0.9936641819349231
-       -0.6028699886900143        0.1728238180585191       -0.1523098662965326       -0.9934394819660318
+       -1.1328703949953918       -0.2870847034727322        0.0496027336179059        0.8475065253219278
+       -0.2234771547647209        0.4593743601115437       -0.0538591698689168        0.9207393412409772
-       -0.7550002055197556        0.5731900724939633        0.3846810658268874       -0.6738758902636315
+       -3.9568939612362697        3.2315085376417909        0.0397586121625610        0.1207489421105395
+       -0.8037610952884808        1.7471537915992117        0.1105229971964057        0.4308753055723465
-       -1.4565292319775043        1.7494607341104114       -0.3296490133107415       -0.7095764258838037
+       -1.8519696606928093        1.6428905888330583       -0.0045949515440213        0.9977500474782615
-       -1.5588828302876532        1.8397511283159977        0.1797865694195037       -0.9963537733476465
-       -0.1273339172934475        4.1452063821686114       -0.6537327810315975       -0.1586318904925156
+       -0.1402006042680185        4.1033809701437205       -0.3381219469732663        0.3123697133706422
