21
s                      x[A]                      y[A]                      z[A]                      q[e]
N -1.9700247471995822 1.4184485095774453 -0.2081982204477818 0.0707249461841811
O -1.6317018517083788 -0.0581828133436361 0.2755224470719474 -0.3496602100029151
N -1.4876891068634537 0.1136038603320890 -0.2237187894843846 0.9824851761690530
N -3.0398256449169474 -0.6801391967187469 0.0661196717359690 0.1071394941056757
O -1.5358195419340648 -0.0130267394366365 -0.3556258832919640 -0.8194842575378962
N -0.4883780681399237 -0.6478229067642316 -0.0809266375449864 0.3116552922920345
N -0.7362454320750789 -2.0029349552263409 0.2489213230340530 0.0918298459672651
N -1.2458647294212382 -1.0056666996703960 0.0326155536456711 0.5593901217632046
O -0.9491152976759295 -0.8134659498143417 0.0044284228420954 -0.9963138680841535
N 0.7150329122890401 0.8888543354164250 -0.0605461669745360 0.9989733053171830
O 0.6856015008797409 0.9858270723665755 -0.0708924732211810 -0.8354521971080898
N 0.5038014979808350 1.7342340058997610 0.0610173407327066 0.2899344186932475
O 0.5158150416312189 1.3471712177707154 0.0551965548159850 -0.8678253524624289
N 0.5281804906588338 -0.4037430837554161 -0.0749392926205542 0.9219570073558310
O 0.6352236101891011 -0.2237595169415830 -0.2392586906343225 -0.9704818863270434
O 0.8037415970883062 -0.2566024723084386 0.4134162240042129 -0.3320651923316272
N 0.6017440731959555 0.3440732016982526 0.0044234935564509 0.9769593393400061
O 1.4942283799721860 -0.5306046466568322 -0.5592740428365578 -0.1970026432733326
O 1.5423747915812720 -0.5164054711263681 0.4442328230796428 -0.1946060569702309
N 2.7702606408760264 0.0193557109730513 -0.0909770996429576 0.1283355164991325
N 1.7228316557526746 -1.8927165987992296 -0.0818226542094178 0.1235072004109040
