21
s                      x[A]                      y[A]                      z[A]                      q[e]
N       -2.0565548735501067        1.5523815946925519       -0.2267456338204041        0.0707249461841811
O       -1.6992024931187018        0.0861962906359393        0.2430715069133171       -0.3496602100029151
N       -1.5481215694015911        0.2386414799152767       -0.2293349484154247        0.9824851761690530
N       -3.1021589052204566       -0.5480197172622298        0.0488193314440105        0.1071394941056757
O       -1.6026993793029216        0.1312593856653032       -0.3863853017484081       -0.8194842575378962
N       -0.6224318870065082       -0.3558728852336629        0.1817752561847717        0.3116552922920345
N       -0.8274605729793887       -1.8729835413109854        0.2345669821003229        0.0918298459672651
N       -1.3882769109265718       -0.7071453201014103        0.1219997602374703        0.5593901217632046
O       -1.0568655836704104       -0.5717772854819941        0.1363425112818276       -0.9963138680841535
N        1.3054277284150071       -0.4697013019120644        0.0498050357694245        0.9989733053171830
O        1.3595449531220873       -0.5399937816545171        0.0610407622337068       -0.8354521971080898
N        1.7714950099726172       -1.2025572336230994       -0.0650914787813027        0.2899344186932475
O        1.5016787934761331       -0.9160364779248660       -0.0561935440865343       -0.8678253524624289
N        0.2394097495878165        0.2769930564220754        0.1087426698090576        0.9219570073558310
O        0.4468402313572487        0.2582928564582790        0.2654234061189508       -0.9704818863270434
O        0.5003519933723719        0.3835507614147746       -0.3947505924381398       -0.3320651923316272
N        0.8253974925785312       -0.1817592031786759        0.0071237967434681        0.9769593393400061
O        0.8428697046756939        1.0851752211755861        0.5391053282633196       -0.1970026432733326
O        0.8117052757270899        1.0960963258989562       -0.4650626554734447       -0.1946060569702309
N        2.0904347633642733        1.6068949806733002       -0.0324637495745737        0.1283355164991325
N       -0.0006724917445867        2.1875179177033388        0.1085392813889851        0.1235072004109040

        RMSE         6.113450780E-01 kcal/mol

Coordinates in bohr
s                   x[bohr]                   y[bohr]                   z[bohr]                      q[e]
+       -3.8863254729852570        2.9335760561704007       -0.4284871480639116        0.0707249461841811
-       -3.2110273436894863        0.1628873823322904        0.4593385769684983       -0.3496602100029151
+       -2.9255257750829609        0.4509670392138180       -0.4333802435011515        0.9824851761690530
+       -5.8622307285167512       -1.0356071769764479        0.0922551660571315        0.1071394941056757
-       -3.0286628883237761        0.2480442903032682       -0.7301623992068731       -0.8194842575378962
+       -1.1762257981942135       -0.6725022885681081        0.3435054505741527        0.3116552922920345
+       -1.5636738625454547       -3.5394259305678903        0.4432673542447790        0.0918298459672651
+       -2.6234631479478328       -1.3363109858908737        0.2305461342203386        0.5593901217632046
-       -1.9971865045592105       -1.0805024743186833        0.2576500055797982       -0.9963138680841535
+        2.4669008832829054       -0.8876068213847831        0.0941178772728432        0.9989733053171830
-        2.5691676166491466       -1.0204403567773110        0.1153503231108953       -0.8354521971080898
+        3.3476404014634307       -2.2725038217358637       -0.1230050679977115        0.2899344186932475
-        2.8377616480778389       -1.7310580642069924       -0.1061904083423901       -0.8678253524624289
+        0.4524188584854134        0.5234410152912102        0.2054938640902103        0.9219570073558310
-        0.8444056591014131        0.4881027588683385        0.5015775448509844       -0.9704818863270434
-        0.9455282338006733        0.7248058942847418       -0.7459705075703081       -0.3320651923316272
+        1.5597752056130343       -0.3434751147891414        0.0134620248185831        0.9769593393400061
-        1.5927929012825828        2.0506839661549821        1.0187614231927136       -0.1970026432733326
-        1.5339006657134318        2.0713218630695955       -0.8788410500229615       -0.1946060569702309
+        3.9503491858947202        3.0365914258453870       -0.0613475957013924        0.1283355164991325
+       -0.0012708252189003        4.1338097589911067        0.2051095156791837        0.1235072004109040
