21
s                      x[A]                      y[A]                      z[A]                      q[e]
N       -1.9700501312322811        1.4188142106491552       -0.2081532896179666        0.0707249461841811
O       -1.6310936809869039       -0.0597307897817950        0.2753399273411390       -0.3496602100029151
N       -1.4893075676820311        0.1179530741472217       -0.2232581522000573        0.9824851761690530
N       -3.0399508478854091       -0.6797914433494601        0.0661591858268316        0.1071394941056757
O       -1.5343719386935408       -0.0165794715440876       -0.3559393129502709       -0.8194842575378962
N       -0.4893090590934281       -0.6462974183350313       -0.0807866444621161        0.3116552922920345
N       -0.7366245643426743       -2.0025639743417676        0.2489786797414248        0.0918298459672651
N       -1.2473411015974414       -1.0033622808477576        0.0328688877813414        0.5593901217632046
O       -0.9464349656075520       -0.8176937587179183        0.0040045536134117       -0.9963138680841535
N        0.7121924374050932        0.8947184327234973       -0.0600967015932959        0.9989733053171830
O        0.6879382789877859        0.9808575260944917       -0.0712558282797878       -0.8354521971080898
N        0.5030611081662625        1.7359837070204431        0.0611596713316633        0.2899344186932475
O        0.5180591076686943        1.3420094286526414        0.0547834405399398       -0.8678253524624289
N        0.5250939738122086       -0.3986814866123987       -0.0745454698953296        0.9219570073558310
O        0.6384020545355219       -0.2290821604356287       -0.2395464856482838       -0.9704818863270434
O        0.8049040644298601       -0.2584915443028339        0.4131745127412647       -0.3320651923316272
N        0.5987811813511180        0.3496139382441990        0.0048710121502012        0.9769593393400061
O        1.4950477387605792       -0.5317613212837637       -0.5592619572696254       -0.1970026432733326
O        1.5431849102329247       -0.5175493499271873        0.4440456191068796       -0.1946060569702309
N        2.7687516100938381        0.0197878271586929       -0.0908890213048699        0.1283355164991325
N        1.7223280677522104       -1.8918952348745606       -0.0817679771466672        0.1235072004109040

        RMSE         7.449034611E+00 kcal/mol

Coordinates in bohr
s                   x[bohr]                   y[bohr]                   z[bohr]                      q[e]
+       -3.7228552014512646        2.6811702810345350       -0.3933527094910612        0.0707249461841811
-       -3.0823203420301288       -0.1128748339448874        0.5203170540782105       -0.3496602100029151
+       -2.8143834194907869        0.2228990057940693       -0.4218967629338884        0.9824851761690530
+       -5.7446745373567341       -1.2846196503601599        0.1250227418959830        0.1071394941056757
-       -2.8995427387185613       -0.0313306605231469       -0.6726278187596368       -0.8194842575378962
+       -0.9246601123920395       -1.2213251162436558       -0.1526646326281338        0.3116552922920345
+       -1.3920186838923425       -3.7842974602142982        0.4705015157893682        0.0918298459672651
+       -2.3571330670460320       -1.8960799154169623        0.0621131959551424        0.5593901217632046
-       -1.7885028805553722       -1.5452172584730599        0.0075675095840606       -0.9963138680841535
+        1.3458486553178937        1.6907727972462749       -0.1135663070546944        0.9989733053171830
-        1.3000149385057151        1.8535520924126945       -0.1346540002914517       -0.8354521971080898
+        0.9506477188035527        3.2805337645256594        0.1155750287398584        0.2899344186932475
-        0.9789898302929017        2.5360302779356299        0.1035256988307898       -0.8678253524624289
+        0.9922838006333992       -0.7533988209878152       -0.1408705219957344        0.9219570073558310
-        1.2064050410017289       -0.4329025434515292       -0.4526772521911706       -0.9704818863270434
-        1.5210482390402975       -0.4884782244790049        0.7807866711004762       -0.3320651923316272
+        1.1315324418317094        0.6606745929242626        0.0092048789176577        0.9769593393400061
-        2.8252307707425164       -1.0048832613379022       -1.0568519316270906       -0.1970026432733326
-        2.9161968412794512       -0.9780265277711213        0.8391246073213661       -0.1946060569702309
+        5.2321822524977524        0.0373935739478259       -0.1717553580771059        0.1283355164991325
+        3.2547283462406522       -3.5751638519716313       -0.1545190826398956        0.1235072004109040
