25
s                      x[A]                      y[A]                      z[A]                      q[e]
N 0.0807248575209381 -0.0104976635374580 0.2402568712088600 0.1158659338886357
O -0.1692932510540882 0.4581347635807164 0.2936164529666860 -0.2341991647481463
N -0.0793981901882460 -0.0060932385010477 -0.3909839677926555 0.0569852111266852
N -0.5188294893985478 -0.0388826638760296 0.1683580859821782 0.3189271149812888
O -0.2247608244914476 -0.3404214789887559 0.2466797831732283 -0.2877498234141676
N -0.0026064686266411 0.1197894264349723 -0.5503232503835994 0.5692545008206258
O -0.1465391755580146 -0.4813306804630545 0.0484905436976653 -0.2058946535748549
O -0.0388240375870138 0.1548012092463923 -0.2532980442642395 -0.9992971180892700
N -0.1923132397490754 -0.0200716691320161 0.2390466642018464 0.6691943173322236
N 0.0202774784925684 -0.0361221221334705 0.4164550351841562 0.0628076875181509
N 0.0590271028633316 0.0084691759514825 0.2635955227718847 0.7576134719858190
O 0.0233243793501088 -0.0739072271554671 -0.0735230669165946 -0.9235083265987739
N 0.0974360800776959 -0.0075044947453414 -0.5075474160348218 0.9955526175656415
O 0.0537862375586215 0.0444476338198316 0.0703233281201026 -0.9936641819349231
O -0.0455265036457753 0.1111100407712934 -0.1241915667076977 -0.9934394819660318
N -0.0360029586991408 -0.0526396646122331 0.2789993693960677 0.8475065253219278
N -0.0855824926960906 0.0155334398462035 -0.3951461891577683 0.9207393412409772
O 0.1544460999615158 -0.2402806643139040 -0.2252648655362686 -0.6738758902636315
N -0.0670804802669820 0.0198632689941774 0.2139141696771004 0.1207489421105395
N 0.2700832528965482 0.0781568840593037 -0.4895728218280628 0.4308753055723465
O 0.3544787711194337 -0.2033986371699680 -0.1311302224136116 -0.7095764258838037
N 0.4524576280320866 -0.0075298974365920 0.0823868882709275 0.9977500474782615
O 0.3138944766204031 0.1181070548815864 -0.0427364985082890 -0.9963537733476465
O -0.0237969911821953 -0.3641115864850878 -0.1384272071238329 -0.1586318904925156
N -0.0391528185850986 -0.1978003034585518 -0.0757258666214784 0.3123697133706422
