23
s                      x[A]                      y[A]                      z[A]                      q[e]
N 2.3342948560529981 0.4223719936505264 -0.1356359285899280 0.2856065124296451
O 2.1330591392613196 0.4549541902637975 -0.1085191468544235 -0.2980193526493612
N 1.2277008621313081 2.0794041707796169 -0.0910217192920827 0.9235469647741466
O 1.2362206323535903 1.9779617569491101 -0.1055714323944200 -0.9987019282037162
O 0.9880585780614788 0.8774780195668305 -0.0147990286140031 -0.9994297377915048
N 0.7182316918896479 1.1946965790733026 -0.0262500421195057 0.3910255639585828
N 1.3555974830691571 1.2650969707887838 -0.1132573144054359 0.3788084070601841
N 1.3016021944490417 0.4004109904847164 -0.0354764066169832 0.3521750120262308
N 0.2823610059578137 0.7454479728119522 0.0050521589483272 0.5091785922378865
N 0.5606868103981795 0.1173551677225502 0.0284707596498677 0.9946620798872232
O 0.5696251993471748 0.2705204604916098 -0.0439613792677100 -0.5088390984708862
O 0.3553063785104422 0.4134304751199395 0.0202999024201177 -0.9513197152299744
N 0.0043311377421905 -0.0071688892791376 0.0586086972637792 0.0534150746794947
N 0.0092432323929386 -0.0364381578496958 0.0745468077672818 0.0449830180293293
O 0.6210504724346391 0.2779759678011439 0.3233356955999085 -0.1594766348608674
O 1.2176399309291148 -1.4623617742445263 -0.2557006960218198 -0.2085098172073890
N 1.1618306105584040 -1.5059559351243579 0.0658945072622199 0.7433887315217406
O 1.1769000892658865 -1.4885720879078403 0.2272389636817736 -0.4563903046399361
N -0.2269890662366456 -1.0898167670106056 -0.0524942016218685 0.2740207269363132
N -1.2978834576892579 -0.2022082337429601 0.0416950367718783 0.2947455612059413
O -1.8007370714800275 0.3502716325112242 -0.0028145396666796 -0.8294346811293033
N -1.9576954341526942 0.1546856950840355 -0.0050458401620173 0.8271270632704910
O -1.9905341718946898 -0.2014819237450674 0.0026888791268834 -0.6625620378342709
