23
s                      x[A]                      y[A]                      z[A]                      q[e]
N        2.3341567992945724        0.4224974881228116       -0.1356217031516370        0.2856065124296451
O        2.1331961848448144        0.4548209493483034       -0.1085316353051780       -0.2980193526493612
N        1.2272776792086606        2.0797013396801831       -0.0909994245734444        0.9235469647741466
O        1.2366757602760969        1.9776187980765354       -0.1055943360984646       -0.9987019282037162
O        0.9885401639983640        0.8770392904331193       -0.0148273094216861       -0.9994297377915048
N        0.7180367448976124        1.1948579358618543       -0.0262400428613199        0.3910255639585828
N        1.3554205634342160        1.2652526457168460       -0.1132469427941785        0.3788084070601841
N        1.3014367725761726        0.4005749768728269       -0.0354654150926345        0.3521750120262308
N        0.2820995286015546        0.7456796352338343        0.0050648582878260        0.5091785922378865
N        0.5601969633104839        0.1178511431453494        0.0284978637983459        0.9946620798872232
O        0.5698769964748122        0.2702718305962346       -0.0439743088283487       -0.5088390984708862
O        0.3557862923958844        0.4129733211928827        0.0202749534629855       -0.9513197152299744
N        0.0043035772024477       -0.0071413050806918        0.0586100712321812        0.0534150746794947
N        0.0092200404523694       -0.0364148307308352        0.0745479860446039        0.0449830180293293
O        0.6211289806731271        0.2778980430446072        0.3233298184730918       -0.1594766348608674
O        1.2177118782577683       -1.4624773698808047       -0.2557089828498907       -0.2085098172073890
N        1.1615739759506800       -1.5055349394129725        0.0659109102344378        0.7433887315217406
O        1.1770572573526081       -1.4888274549448144        0.2272322869960263       -0.4563903046399361
N       -0.2271373613262793       -1.0896539066351960       -0.0524877653015675        0.2740207269363132
N       -1.2980435136985169       -0.2020600842365200        0.0417005315390419        0.2947455612059413
O       -1.8003107726016245        0.3498769514774690       -0.0028262004028258       -0.8294346811293033
N       -1.9581185879870093        0.1550731170494767       -0.0050346755472843        0.8271270632704910
O       -1.9901836740381798       -0.2017927682316110        0.0026797041915444       -0.6625620378342709

        RMSE         2.499566961E+01 kcal/mol

Coordinates in bohr
s                   x[bohr]                   y[bohr]                   z[bohr]                      q[e]
+        4.4109170845419774        0.7984045412459855       -0.2562878756247348        0.2856065124296451
-        4.0311565612282125        0.8594870303890205       -0.2050950666748560       -0.2980193526493612
+        2.3192186935918575        3.9300659547432870       -0.1719639900180670        0.9235469647741466
-        2.3369784929141626        3.7371579089217382       -0.1995443756256432       -0.9987019282037162
-        1.8680701739720744        1.6573640601844615       -0.0280195539844072       -0.9994297377915048
+        1.3568927958717161        2.2579542576087599       -0.0495864945281694        0.3910255639585828
+        2.5613736497044073        2.3909809799157618       -0.2140057064263872        0.3788084070601841
+        2.4593590697687113        0.7569769990012463       -0.0670199214507577        0.3521750120262308
+        0.5330908491776956        1.4091302879232404        0.0095711950282464        0.5091785922378865
+        1.0586188369699618        0.2227063841168370        0.0538531577394731        0.9946620798872232
-        1.0769114485358913        0.5107397392530170       -0.0830994002418813       -0.5088390984708862
-        0.6723386518202806        0.7804064741752774        0.0383141092514453       -0.9513197152299744
+        0.0081325822723901       -0.0134951107808480        0.1107569828223971        0.0534150746794947
+        0.0174233513206205       -0.0688140569861839        0.1408752768287536        0.0449830180293293
-        1.1737636620569987        0.5251511921549983        0.6110048051081387       -0.1594766348608674
-        2.3011419496240269       -2.7636816937546080       -0.4832199454056862       -0.2085098172073890
+        2.1950566890059231       -2.8450487077982625        0.1245535690227229        0.7433887315217406
-        2.2243158503789617       -2.8134761379081032        0.4294067892839220       -0.4563903046399361
+       -0.4292274057658246       -2.0591474550757152       -0.0991875013572711        0.2740207269363132
+       -2.4529467398171638       -0.3818382200939613        0.0788025838948057        0.2947455612059413
-       -3.4020943009284572        0.6611716159025141       -0.0053407447369994       -0.8294346811293033
+       -3.7003078524636446        0.2930457206445758       -0.0095141579149069        0.8271270632704910
-       -3.7609020832895945       -0.3813330660557318        0.0050639070192602       -0.6625620378342709
