21
s                      x[A]                      y[A]                      z[A]                      q[e]
N -2.1160144433474626 1.6006394707279250 0.0308492603333421 0.0690680479201058
O -1.8496771178368667 -0.2681551583061476 0.4099094947241925 -0.3117950550350966
N -1.9852190057600905 -0.3589339561648076 0.0632887015501735 0.5776243102962968
N -3.3222941225962606 -0.5610703304011246 0.1060951747991470 0.0604184539076988
O -1.8633830627923249 -0.2918903781903573 -0.2620323102277149 -0.3968494342195521
O -0.9247444969600922 -0.1629558244366902 0.0839014053770817 -0.9828651838991298
N -0.7630802669655532 -0.0165239140627338 0.0718148786857804 0.7759263489545838
N -1.0106834441260311 -1.3856045315838481 0.0215601352650928 0.9970342621901004
O -1.0291026222069095 -1.3883293023626853 -0.2585364655207333 -0.3970377457969525
O -1.0483683329840350 -1.3972540133853100 0.2931482570780072 -0.3893757401670396
N 1.8150834832359495 -1.2199522524674347 -0.2277320904948535 0.1691966627363242
O 1.4653860233700060 -0.9543618759909891 -0.1429491160986662 -0.6800109224217911
O 0.3610420443000995 0.3993513236497693 -0.3946491413434274 -0.9821368279659007
N 0.2128745379595616 0.4743447636092868 -0.2666285522084150 0.8921713087406896
O 0.5800082809780512 0.4717639690473541 0.2671375238358084 -0.3335771210350215
N 0.7806403053695776 -0.1344236438204335 -0.1434425104454113 0.9988617281482304
N 2.2942480690801088 1.6781080620905560 0.2845906817121329 0.0655379221577991
N 1.0909013680029318 1.0882243213439258 0.1827277328022693 0.9908754307264420
O 0.9662104233489610 1.1265946711103629 -0.1708675855243250 -0.6595771554465193
O 1.0115095397529599 1.0740049721565319 0.5473491852022572 -0.5578053818499882
N -0.1802905569329756 2.2428948838859162 -0.0863415180155426 0.0943160920587207
