21
s                      x[A]                      y[A]                      z[A]                      q[e]
N -2.0376550346074036 1.6745549527300643 0.0531516408302359 0.0690680479201058
O -1.8653466780411119 -0.2216586760193555 0.3893972160705497 -0.3117950550350966
N -1.9996396900034787 -0.2961776486084519 0.0384404132509117 0.5776243102962968
N -3.3447502258799275 -0.4403342051551693 0.0573589090326787 0.0604184539076988
O -1.8702466448567887 -0.2250672702581324 -0.2830768537958068 -0.3968494342195521
O -0.9321521778816334 -0.1479265536546547 0.0790226991787131 -0.9828651838991298
N -0.7640873017060144 -0.0084734756264040 0.0734775943579143 0.7759263489545838
N -1.0703680509480284 -1.3631524701312527 -0.0209923693565723 0.9970342621901004
O -1.0847898883474829 -1.3568540163678122 -0.3012656937293357 -0.3970377457969525
O -1.1124940874338090 -1.3810821194667358 0.2495993783170300 -0.3893757401670396
N 1.8030751024705709 -1.2411915934374498 -0.2894694884205241 0.1691966627363242
O 1.4239375247626160 -1.0317324534915668 -0.1397490065431283 -0.6800109224217911
O 0.3838280843920020 0.3709250737332438 -0.3653149227987831 -0.9821368279659007
N 0.2372206997168280 0.4485947312338766 -0.2370940341844442 0.8921713087406896
O 0.5923219713668679 0.4175161669767971 0.3006981892510759 -0.3335771210350215
N 0.7737485071718119 -0.1842578173334642 -0.1250306912225503 0.9988617281482304
N 2.2841657895391396 1.6518851654764199 0.2842604849956869 0.0655379221577991
N 1.0805803834639409 1.0538293813772523 0.1856745475116639 0.9908754307264420
O 0.9554967861965102 1.1008356081198634 -0.1699160302462223 -0.6595771554465193
O 1.0635941379933298 1.0363512226479301 0.3563691694339217 -0.5578053818499882
N -0.0692130257538336 2.2250757507188146 0.0169332041373866 0.0943160920587207
