21
s                      x[A]                      y[A]                      z[A]                      q[e]
N 0.0230015553364417 0.5065598027890226 0.2820282381836838 0.0707249461841811
O 0.1146007057125126 0.1963447088841314 0.2633434183493666 -0.3496602100029151
N 0.3190234975539618 -0.2955548372172282 0.3852010876806421 0.9824851761690530
N 0.0928849997457406 0.0825360260333778 -0.2070360024135362 0.1071394941056757
O 0.1813331162874737 -0.4168551720628130 0.4299319691060741 -0.8194842575378962
N 0.1376231511625341 -0.0337072173866574 0.3007296224153434 0.3116552922920345
N 0.0187973767786560 0.5121587741841386 0.1965538688080462 0.0918298459672651
N 0.1606944647606298 -0.1786562225960648 -0.5315160739138501 0.5593901217632046
O 0.1038697392115009 -0.1370015512801054 -0.1837886966245710 -0.9963138680841535
N 0.1940481519487627 0.0164698192247066 -0.4178318624812470 0.9989733053171830
O 0.1642213372510339 0.0298103255882953 -0.3213187502840051 -0.8354521971080898
N -0.0172388206541360 -0.0779733861859152 0.4308186707381136 0.2899344186932475
O -0.0046103989819724 -0.0857822879813149 0.0432749626505314 -0.8678253524624289
N 0.0112264430953014 -0.0027309970875632 -0.3460407959437009 0.9219570073558310
O 0.1120743328805212 0.1683176723247820 -0.1695164471991084 -0.9704818863270434
O 0.3011150247003023 -0.4781919534438883 -0.1873691904068724 -0.3320651923316272
N 0.0834290128325156 -0.0630181817721315 0.4030941969847995 0.9769593393400061
O 0.2731635891331642 -0.6188494804753708 -0.1336098878696373 -0.1970026432733326
O 0.2065799200042278 0.3714219427713415 0.0195737597978112 -0.1946060569702309
N 0.0943201629305263 -0.3067374301394754 0.2061614446072252 0.1283355164991325
N -0.0150006647520121 -0.1662957492493026 -0.1087112586929617 0.1235072004109040
