25
s                      x[A]                      y[A]                      z[A]                      q[e]
N 0.0653952428006550 -0.0036385534870890 0.2442856086100654 0.1158659338886357
O -0.1738398726171494 0.4400918282432579 0.3070479545358940 -0.2341991647481463
N -0.0838894141523543 -0.0060952426379763 -0.3910054291184582 0.0569852111266852
N -0.5105672869399926 -0.0326527112156007 0.1396695757038852 0.3189271149812888
O -0.2396231825463819 -0.3394196197143227 0.2739321791539449 -0.2877498234141676
N 0.0398518748682806 0.1149883967740740 -0.5523576956607698 0.5692545008206258
O -0.1602763772687075 -0.4971142846454657 0.0424008757250343 -0.2058946535748549
O -0.0731883525113644 0.1669258402289142 -0.2746521168551229 -0.9992971180892700
N -0.1841113581974946 -0.0181518419418086 0.2439129901095498 0.6691943173322236
N 0.0174968469281675 -0.0209248265130932 0.3800029185673350 0.0628076875181509
N 0.0594122728469023 0.0045192591687691 0.2964900454644441 0.7576134719858190
O 0.0357281602033034 -0.0752168549397364 -0.0569246450113329 -0.9235083265987739
N 0.1082744391675117 -0.0100130822751527 -0.4753374238303386 0.9955526175656415
O 0.0691125906055731 0.0517941038357002 0.0965352182898792 -0.9936641819349231
O -0.0431634277059529 0.1160937235486697 -0.1238825876956313 -0.9934394819660318
N -0.0259237278985401 -0.0527163605935506 0.2967994507286044 0.8475065253219278
N -0.0780160379172365 0.0198666794032163 -0.4042048500179179 0.9207393412409772
O 0.1555625964371072 -0.2566529964454607 -0.2264818403567378 -0.6738758902636315
N -0.0645646331602564 0.0228835605073266 0.2204955187395338 0.1207489421105395
N 0.2613443378468582 0.0756383658432561 -0.4891279020357158 0.4308753055723465
O 0.3496299591489671 -0.2119027133331531 -0.1259865684752265 -0.7095764258838037
N 0.4479540861981055 -0.0078515275132520 0.1039707783469233 0.9977500474782615
O 0.3053152082439917 0.1260921437975883 -0.0350546123570402 -0.9963537733476465
O -0.0340928845007316 -0.3706540257272279 -0.1402025938250891 -0.1586318904925156
N -0.0307087279654242 -0.2016875103426410 -0.0949813801108569 0.3123697133706422
