25
s                      x[A]                      y[A]                      z[A]                      q[e]
N       -2.3098468240059837       -0.4106450967133055       -0.4983583423694500        0.1158659338886357
O       -1.3048498598564191        0.9618377834237857       -0.4939951591898812       -0.2341991647481463
N       -2.5279340694633641        1.9766903896152703       -0.2596796422647821        0.0569852111266852
N       -1.5906518559120557        1.2521786272008431       -0.0481412421504450        0.3189271149812888
O       -1.5344903452408889        0.9507824851738960        0.2545740495245258       -0.2877498234141676
N       -0.7238133263371032        1.1991691104106734        0.2591869271379445        0.5692545008206258
O       -0.3702596344946775        0.6369592108097203       -0.3874714741397430       -0.2058946535748549
O       -0.6696097976954294        0.9022870638655746        0.2972729325971369       -0.9992971180892700
N       -0.4151654097448736        0.4358982614476218        0.0900656465590300        0.6691943173322236
N        0.3058564794877379        1.9589497055461447        0.5094423699684730        0.0628076875181509
N       -0.4170570260744005       -1.9483937752133744        0.0035300057102809        0.7576134719858190
O       -0.2370488160266023       -1.6331827954183533       -0.0118502972043839       -0.9235083265987739
N        0.0123098934268500       -1.3206113690319488        0.1452458443679865        0.9955526175656415
O       -0.3225967843724186       -1.7864252261824929        0.0883368781106409       -0.9936641819349231
O        0.3840349567054610       -0.3800291996822743        0.4310683094921853       -0.9934394819660318
N        0.2228359514290285       -0.7295005378616134        0.1905747540127380        0.8475065253219278
N        0.5321328456591313       -0.1249418009526198        0.3864072325188254        0.9207393412409772
O        0.7035054831804320       -0.3909592320970762        0.1363173050545876       -0.6738758902636315
N        2.8443286498085847        0.1690087763617728       -0.4742051923630948        0.1207489421105395
N        1.2488306735987866       -0.3145496634915670        0.4915354213056137        0.4308753055723465
O        1.4828094577914523       -0.2225718676542269        0.0543768115616715       -0.7095764258838037
N        1.6069609390597248        0.0451691864822245       -0.0765301861469021        0.9977500474782615
O        1.6078540221294437        0.0903360424694794        0.1593801651113696       -0.9963537733476465
O        2.0986609570604555       -0.9534698845814565        1.2262982802508833       -0.1586318904925156
N        2.0992767338801253       -0.7805509557362346        1.2532158553094943        0.3123697133706422

        RMSE         4.054777246E+00 kcal/mol

Coordinates in bohr
s                   x[bohr]                   y[bohr]                   z[bohr]                      q[e]
+       -4.3649778891298974       -0.7760067675502900       -0.9417607794154065        0.1158659338886357
-       -2.4658088699706608        1.8176099877883762       -0.9335155581708172       -0.2341991647481463
+       -4.7771030544998432        3.7354034711973894       -0.4907234042373015        0.0569852111266852
+       -3.0058963686249927        2.3662746655613516       -0.0909737630036875        0.3189271149812888
-       -2.8997664946645099        1.7967185018608314        0.4810752322500914       -0.2877498234141676
+       -1.3678089527337565        2.2661011967850726        0.4897923075897083        0.5692545008206258
-       -0.6996893045070586        1.2036784615181286       -0.7322149675515297       -0.2058946535748549
-       -1.2653791285675839        1.7050754372494121        0.5617644271202737       -0.9992971180892700
+       -0.7845489211812916        0.8237283326992177        0.1701994053088499        0.6691943173322236
+        0.5779849799285347        3.7018784370284692        0.9627065559445760        0.0628076875181509
+       -0.7881235579785414       -3.6819306197001205        0.0066707440137331        0.7576134719858190
-       -0.4479573406543167       -3.0862681961503098       -0.0223938162215641       -0.9235083265987739
+        0.0232623272103200       -2.4955938056363025        0.2744748667163658        0.9955526175656415
-       -0.6096195714172451       -3.3758544210939667        0.1669325064070619       -0.9936641819349231
-        0.7257208907753756       -0.7181511070764235        0.8146010463043232       -0.9934394819660318
+        0.4210989191066868       -1.3785562249326284        0.3601340915105701        0.8475065253219278
+        1.0055853406562787       -0.2361057854219174        0.7302038423566820        0.9207393412409772
-        1.3294326909688952       -0.7388058748827756        0.2576023727136587       -0.6738758902636315
+        5.3750021589314727        0.3193803001225015       -0.8961179408362951        0.1207489421105395
+        2.3599479501727245       -0.5944127168539826        0.9288673272291387        0.4308753055723465
-        2.8021037714644641       -0.4205998730981347        0.1027572814271879       -0.7095764258838037
+        3.0367160691314070        0.0853573917611362       -0.1446210921479517        0.9977500474782615
-        3.0384037515404589        0.1707103795250431        0.3011848618907374       -0.9963537733476465
-        3.9658944390354720       -1.8017969507308385        2.3173678977940995       -0.1586318904925156
+        3.9670580885790532       -1.4750275333058394        2.3682347426163290        0.3123697133706422
