21
s                      x[A]                      y[A]                      z[A]                      q[e]
N 0.0271685079593908 -0.0450002761545496 0.3787638684579787 0.0707249461841811
O 0.1028318492478082 0.2923883916429107 0.3140322073584422 -0.3496602100029151
N 0.3753815371950610 -0.1822340975613946 0.3125256729590720 0.9824851761690530
N 0.0335900472309884 -0.0109816629293254 -0.1884483418618019 0.1071394941056757
O 0.2564105828991221 -0.3287242377681521 0.3211975723169475 -0.8194842575378962
N 0.1010653713106460 0.1262652633521955 0.2907041324840378 0.3116552922920345
N 0.0297762663150307 -0.0163251255168996 0.2435373067838159 0.0918298459672651
N 0.0908044207169784 0.0398201748731059 -0.5501906481240971 0.5593901217632046
O 0.0473759468129540 0.0583857729821362 -0.1986007127197340 -0.9963138680841535
N 0.2260774900422641 0.0843513866079798 -0.4263987367002492 0.9989733053171830
O 0.2004151700863628 0.0996429972815553 -0.3291113757059865 -0.8354521971080898
N 0.0343726712755105 0.0065958629017053 0.4288175433822526 0.2899344186932475
O 0.0346747647994641 -0.0026348603236433 0.0414323654742139 -0.8678253524624289
N 0.0010412623484190 0.0787385975692471 -0.3511572118067983 0.9219570073558310
O 0.1206328983443364 0.2415799444155945 -0.1782457206317620 -0.9704818863270434
O 0.2581537643939666 -0.4186640442861430 -0.1999427439023437 -0.3320651923316272
N 0.0921767502861226 0.0131904458176911 0.3959986424979746 0.9769593393400061
O 0.1996763554697088 -0.5142191571578375 -0.0956535271419287 -0.1970026432733326
O 0.2308282260725656 0.4897950103315009 -0.0748541526819807 -0.1946060569702309
N 0.0217891627602744 -0.0001845438018470 0.1846050306730860 0.1283355164991325
N 0.0371663260321391 0.0044262791701375 -0.1491526130585874 0.1235072004109040
