21
s                      x[A]                      y[A]                      z[A]                      q[e]
N 1.5006923274843411 0.0381213396144086 0.0796031249022192 0.0707249461841811
O 0.5117191952044692 -0.2513494539763367 0.2423038172455832 -0.3496602100029151
N 0.8002849826938984 0.2135465304556504 0.2326263093920972 0.9824851761690530
N -0.7240454419268260 0.1140887955794080 0.0355330518126902 0.1071394941056757
O 0.6868643358320454 0.3634780134869572 0.2124363060214481 -0.8194842575378962
N -0.0587823386201118 -0.0957483482300834 -0.5976255339538061 0.3116552922920345
N 1.0390662291534658 0.0145537391600558 -0.2264283102302930 0.0918298459672651
N -0.0525741361462962 0.0624833719873301 -0.5795878705375594 0.5593901217632046
O 0.2677257487493294 0.0630981753224624 -0.7319147348197319 -0.9963138680841535
N -1.2144850375738727 -0.0262304754891475 -0.3860420419345861 0.9989733053171830
O -1.1835318544176967 -0.0426350231967471 -0.2903876797282279 -0.8354521971080898
N -0.9716382818484612 0.0454612754243959 0.4566429256416855 0.2899344186932475
O -0.9941597638570254 0.0550597363810902 0.0700140702967477 -0.8678253524624289
N -0.1425355605988175 -0.0239173059730781 0.3519294542857743 0.9219570073558310
O -0.3527014088888378 -0.1845184076128357 0.3220835049787029 -0.9704818863270434
O -0.3904959280024042 0.4790124108579771 0.2047807211727045 -0.3320651923316272
N -0.8468873876504216 0.0426030620665289 0.6172647019633838 0.9769593393400061
O -0.2523081816131774 0.5019857114860136 0.6670570203647310 -0.1970026432733326
O -0.1793433005030842 -0.4946610951553803 0.5625726080649338 -0.1946060569702309
N -0.4511024856460097 -0.0891342622140168 0.3952825228984500 0.1283355164991325
N -0.9685726913291175 -0.1077396147418170 0.0937436297755516 0.1235072004109040
