21
s                      x[A]                      y[A]                      z[A]                      q[e]
N 2.1279037198599977 1.5735708140122813 0.1954064861668472 0.0690680479201058
O 1.8774127999579440 -0.2685555794242308 -0.3278011248962783 -0.3117950550350966
N 1.9782928994278919 -0.3815589128518485 0.0236025092269131 0.5776243102962968
N 3.3108256831659411 -0.6082840710916418 0.0719895510765490 0.0604184539076988
O 1.8248898094847699 -0.3377561459999582 0.3390874238486118 -0.3968494342195521
O 0.9197250681433676 -0.1731327641553237 -0.1367007892194308 -0.9828651838991298
N 0.7628565279160711 -0.0159473534512146 -0.1293404116094332 0.7759263489545838
N 0.9922119107620839 -1.3864090210694258 -0.0991739949967595 0.9970342621901004
O 0.9794350665985568 -1.4137787375821051 0.1799012639502147 -0.3970377457969525
O 1.0524658561220295 -1.3861391552275304 -0.3666205411986468 -0.3893757401670396
N -1.8078449635213070 -1.2300144540027114 0.1567610990034375 0.1691966627363242
O -1.4857220024007911 -0.9224421162140111 0.0916935872007767 -0.6800109224217911
O -0.3677114075156432 0.4093223289810970 0.3106061146489639 -0.9821368279659007
N -0.2124507048017233 0.4919884575915014 0.1845895896542128 0.8921713087406896
O -0.5694989301832255 0.4855402149799817 -0.3563791015520234 -0.3335771210350215
N -0.7857802782180250 -0.1052540365917999 0.0556364599191734 0.9988617281482304
N -2.2578405475885472 1.7209184127278518 0.0006223997406231 0.0655379221577991
N -1.0647263588829594 1.1067042249269055 -0.0354827489281560 0.9908754307264420
O -0.9257498031826614 1.0827297291240907 0.3140688180883888 -0.6595771554465193
O -1.0035553600638167 1.1310023429403828 -0.4021512657194977 -0.5578053818499882
N 0.1970008585844645 2.2470778058932863 -0.0339943612946611 0.0943160920587207
