25
s                      x[A]                      y[A]                      z[A]                      q[e]
N        1.6842646958894067        0.5335708661939031       -1.5174360460688134        0.1158659338886357
O        1.7640040054168693       -0.5823782503474391       -0.2137274463838638       -0.2341991647481463
N        3.3602424701512361       -0.2792312337320080       -0.0344402589259373        0.0569852111266852
N        2.1548880581343295       -0.2105965412342136        0.0764302601194538        0.3189271149812888
O        1.8727885228342331        0.1109078730635811        0.1244789794891644       -0.2877498234141676
N        1.3791798832227655       -0.4650419485236204        0.7118096972368855        0.5692545008206258
O        1.0136617263168015       -0.1840588739038974       -0.0090274864460038       -0.2058946535748549
O        1.1155972720059806       -0.3121258831516462        0.6307024434311740       -0.9992971180892700
N        0.7009599271741068       -0.1212845252335368        0.3895540128537853        0.6691943173322236
N        1.1207087200941461       -0.9697724709369147        1.7931126693473267        0.0628076875181509
N       -0.8843953186432517        1.5134566524259501        0.0581194586204701        0.7576134719858190
O       -0.7755180989896562        1.2117711492824692        0.0091705022707700       -0.9235083265987739
N       -0.7610034302077930        0.7847198216730852        0.0471016553456422        0.9955526175656415
O       -0.8557406125429345        1.3345615029349231        0.1002253961404006       -0.9936641819349231
O       -0.4542389308321682       -0.1780354658670845        0.2127502182511023       -0.9934394819660318
N       -0.5057796798501516        0.2087100397430609        0.0508710969282537        0.8475065253219278
N       -0.3378674289450930       -0.4340196229315876        0.1520806268377379        0.9207393412409772
O       -0.5380541379078635       -0.3223939713793074       -0.1560993050296892       -0.6738758902636315
N       -2.6751579990131367       -0.5964390883678280       -0.5390571636857379        0.1207489421105395
N       -0.9136303903145822       -0.8251229741171631       -0.1265623583695328        0.4308753055723465
O       -1.2857417058387162       -0.6523260245401066        0.0535793165778749       -0.7095764258838037
N       -1.3983339450471630       -0.4831179958304563       -0.1614446890760729        0.9977500474782615
O       -1.2880495115232813       -0.6489149959750308       -0.2646925803096251       -0.9963537733476465
O       -1.3627619820816799       -2.1441275206536807        0.1213356781622582       -0.1586318904925156
N       -1.3317073399583659       -2.0885752302790541       -0.0342911231606157        0.3123697133706422

        RMSE         5.173965093E-01 kcal/mol

Coordinates in bohr
s                   x[bohr]                   y[bohr]                   z[bohr]                      q[e]
+        3.1827989980084959        1.0083028056297818       -2.8675385399676654        0.1158659338886357
-        3.3334844544485103       -1.1005353945799752       -0.4038863391589746       -0.2341991647481463
+        6.3499379837177372       -0.5276705574271966       -0.0650826570598758        0.0569852111266852
+        4.0721482608935293       -0.3979697859013502        0.1444322593232694        0.3189271149812888
-        3.5390573990574246        0.2095855052472098        0.2352311796110032       -0.2877498234141676
+        2.6062722570319368       -0.8788019195588999        1.3451253812227693        0.5692545008206258
-        1.9155430465975427       -0.3478208626385430       -0.0170594769842299       -0.2058946535748549
-        2.1081733103991844       -0.5898324358232632        1.1918548847419774       -0.9992971180892700
+        1.3246222872799263       -0.2291945359475636        0.7361503953667327        0.6691943173322236
+        2.1178325473903126       -1.8326043740792799        3.3884918571550675        0.0628076875181509
+       -1.6712649388727534        2.8600185758372656        0.1098298593525675        0.7576134719858190
-       -1.4655168124261435        2.2899155988751398        0.0173297377246444       -0.9235083265987739
+       -1.4380880636266895        1.4829055481802371        0.0890092286589704        0.9955526175656415
-       -1.6171153921376682        2.5219557381263882        0.1893985495208751       -0.9936641819349231
-       -0.8583871747935796       -0.3364382711070850        0.4020396456259628       -0.9934394819660318
+       -0.9557850747385277        0.3944048147478038        0.0961324408960186        0.8475065253219278
+       -0.6384769074188086       -0.8201782204151765        0.2873907337112762        0.9207393412409772
-       -1.0167749613151789       -0.6092363104055805       -0.2949849348804143       -0.6738758902636315
+       -5.0553159604626110       -1.1271065275329348       -1.0186704053321356        0.1207489421105395
+       -1.7265112175896986       -1.5592564409046663       -0.2391681951104623        0.4308753055723465
-       -2.4296996921141356       -1.2327175308894838        0.1012502343213859       -0.7095764258838037
+       -2.6424681880701351       -0.9129606983996393       -0.3050862467634711        0.9977500474782615
-       -2.4340608128087386       -1.2262716210953770       -0.5001964842259428       -0.9963537733476465
-       -2.5752469203204433       -4.0518137920923794        0.2292912009733621       -0.1586318904925156
+       -2.5165621517832735       -3.9468351776424284       -0.0648008313079075        0.3123697133706422
