25
s                      x[A]                      y[A]                      z[A]                      q[e]
N       -1.9267391086682859        1.2915879216022697        0.1865543794414293        0.1158659338886357
O       -1.7561768830635380       -0.3743336168279512        0.4554939133622857       -0.2341991647481463
N       -3.2849227347555781       -0.6758530577725979        0.0470443874778290        0.0569852111266852
N       -2.0921031720352530       -0.5391548515358197       -0.0185881373642028        0.3189271149812888
O       -1.8548523638737302       -0.3441236670718359       -0.3207556217776281       -0.2877498234141676
N       -1.2783139093185647       -0.9670029487186627       -0.1899375057210579        0.5692545008206258
O       -0.8425266846337069       -0.5313682925611836        0.4334650388383306       -0.2058946535748549
O       -1.0733781728426368       -0.7472118450836308       -0.2370621337600862       -0.9992971180892700
N       -0.6563578362064348       -0.4258646340942850       -0.0405538147738939        0.6691943173322236
N       -0.7680877408570346       -2.1548343557040890       -0.2173644031872482        0.0628076875181509
N        0.5387452743200418        1.6295612119001877       -0.0356342275824024        0.7576134719858190
O        0.5217846515274469        1.2757408044650873        0.0451180339502867       -0.9235083265987739
N        0.6066175872040614        0.8591224189006026       -0.0164640584514719        0.9955526175656415
O        0.5549974197388445        1.4296290927626372       -0.0815882181637606       -0.9936641819349231
O        0.4856339282081586       -0.2026653281117404       -0.1424800645053546       -0.9934394819660318
N        0.4872668667425197        0.2191070248432746        0.0250248653703018        0.8475065253219278
N        0.4549880637275151       -0.4833217397777529       -0.0460954854451796        0.9207393412409772
O        0.6759593683755538       -0.2988658442176540        0.2364404087311803       -0.6738758902636315
N        2.8465771403336815       -0.0294786150009616        0.1248828384992385        0.1207489421105395
N        1.1562949742083539       -0.7084263858687510        0.0955348679546130        0.4308753055723465
O        1.4315969343436268       -0.4433513315903465       -0.1807803935943604       -0.7095764258838037
N        1.5627752099893972       -0.2351791235894788        0.0282461507365519        0.9977500474782615
O        1.5141801644212840       -0.4286421856208398        0.1620560961203951       -0.9963537733476465
O        1.8450322805119390       -1.8919962178982415       -0.3020745639658591       -0.1586318904925156
N        1.8298027318168928       -1.8452172783199263       -0.1341290887675682        0.3123697133706422

        RMSE         3.563539839E-01 kcal/mol

Coordinates in bohr
s                   x[bohr]                   y[bohr]                   z[bohr]                      q[e]
+       -3.6410092305917892        2.4407474387775863        0.3525366846490417        0.1158659338886357
-       -3.3186933368502651       -0.7073880153568994        0.8607587480677358       -0.2341991647481463
+       -6.2076043119779918       -1.2771771802434371        0.0889010080730146        0.0569852111266852
+       -3.9535020213482106       -1.0188550086145751       -0.0351264888007328        0.3189271149812888
-       -3.5051629708793977       -0.6502994840540001       -0.6061402783606538       -0.2877498234141676
+       -2.4156631909754207       -1.8273707355884132       -0.3589298667653788        0.5692545008206258
-       -1.5921446873476846       -1.0041405446927871        0.8191302083653855       -0.2058946535748549
-       -2.0283907757169191       -1.4120257449060847       -0.4479825075232131       -0.9992971180892700
+       -1.2403365507282700       -0.8047675249565088       -0.0766356032652050        0.6691943173322236
+       -1.4514754705414203       -4.0720467780081036       -0.4107591914474917        0.0628076875181509
+        1.0180810198495274        3.0794243951605047       -0.0673389308229758        0.7576134719858190
-        0.9860300878543252        2.4108007275102623        0.0852607274851500       -0.9235083265987739
+        1.1463411027017072        1.6235060799629930       -0.0311125613868112        0.9955526175656415
-        1.0487931236421786        2.7016074463081283       -0.1541793873936113       -0.9936641819349231
-        0.9177151215436686       -0.3829819652572387       -0.2692483002526852       -0.9934394819660318
+        0.9208009281533176        0.4140522691176734        0.0472901418763242        0.8475065253219278
+        0.8598028307973565       -0.9133457186597497       -0.0871078431114169        0.9207393412409772
-        1.2773780781672561       -0.5647745938251102        0.4468076174932386       -0.6738758902636315
+        5.3792511902195921       -0.0557065089096302        0.2359943625333417        0.1207489421105395
+        2.1850808214971118       -1.3387318493398470        0.1805347358659961        0.4308753055723465
-        2.7053261279544865       -0.8378125940627943       -0.3416254327458119       -0.7095764258838037
+        2.9532171425348075       -0.4444241340093135        0.0533774889904820        0.9977500474782615
-        2.8613858153569303       -0.8100163366410449        0.3062416386284156       -0.9963537733476465
-        3.4866057027964472       -3.5753546822297086       -0.5708381953625657       -0.1586318904925156
+        3.4578260267484864       -3.4869552979873535       -0.2534672432279258        0.3123697133706422
