25
s                      x[A]                      y[A]                      z[A]                      q[e]
N        1.7738494664117839        0.9521046920233608       -1.2444166691919101        0.1158659338886357
O        1.7031395102071978       -0.4432201178104445       -0.3647193249498132       -0.2341991647481463
N        3.3768070841808266       -0.3250193300202344        0.0262234927942383        0.0569852111266852
N        2.1241508412803554       -0.2150720841938118        0.0023618902815103        0.3189271149812888
O        1.9037538383360433        0.0884875136114972        0.2485932916064544       -0.2877498234141676
N        1.3094710622659576       -0.5442869163387137        0.3449887402138914        0.5692545008206258
O        0.6948508348278055       -0.5784905847008445        0.6384234372833431       -0.2058946535748549
O        1.0845850471220544       -0.4178395947317755        0.1425054995828230       -0.9992971180892700
N        0.5845074491813381       -0.4214633535350813        0.1893299720625380        0.6691943173322236
N        0.9918749885602547       -1.3379324341928096        1.5369524982066898        0.0628076875181509
N       -1.1571836050616842       -1.0995770221439272       -0.2197532334719686        0.7576134719858190
O       -1.0465744968597865       -0.9480598192838018       -0.1582428807164531       -0.9235083265987739
N       -0.8389972359640899       -0.6007087337960035       -0.1054862160925977        0.9955526175656415
O       -1.1142024069643210       -0.9953857721629101       -0.2256898226615646       -0.9936641819349231
O       -0.3091140690126396        0.0473134713188362       -0.0155638090388088       -0.9934394819660318
N       -0.5187225208285672       -0.2260820870571094       -0.0298968011621250        0.8475065253219278
N       -0.1789250027004981        0.1861661758137195        0.1052414385802836        0.9207393412409772
O       -0.4687321496993108        0.2107700170993531        0.1922058862836311       -0.6738758902636315
N       -2.3196573579236071        1.4420615901722929       -0.1747007537424642        0.1207489421105395
N       -0.5747982377730049        0.8270031061131522        0.2117379461984014        0.4308753055723465
O       -0.8390954344471175        0.8290543027520192       -0.0469593401615659       -0.7095764258838037
N       -1.0597219488105953        0.7032430417874841        0.0151807797068506        0.9977500474782615
O       -0.9300756779643745        0.8322238265426753        0.1537266130083237       -0.9963537733476465
O       -0.4537476788550063        2.1524438814656004        0.1555784276895356       -0.1586318904925156
N       -0.4260285797712532        2.1862974249803759        0.2436037369929916        0.3123697133706422

        RMSE         5.514802294E-01 kcal/mol

Coordinates in bohr
s                   x[bohr]                   y[bohr]                   z[bohr]                      q[e]
+        3.3520896793077761        1.7992171106875243       -2.3516066907271642        0.1158659338886357
-        3.2184672277379911       -0.8375646359548934       -0.6892196368170050       -0.2341991647481463
+        6.3812405676075796       -0.6141975192180367        0.0495552194340271        0.0569852111266852
+        4.0140633391807121       -0.4064273363577118        0.0044633257704350        0.3189271149812888
-        3.5975733647442398        0.1672171662484514        0.4697732377622731       -0.2877498234141676
+        2.4745416768949946       -1.0285532055501465        0.6519342353709743        0.5692545008206258
-        1.3130777758702863       -1.0931887712405604        1.2064454485389207       -0.2058946535748549
-        2.0495686988274557       -0.7896023984153473        0.2692963655830802       -0.9992971180892700
+        1.1045589972426886       -0.7964503100983120        0.3577817945387788        0.6691943173322236
+        1.8743720790704976       -2.5283258749915389        2.9044192894488576        0.0628076875181509
+       -2.1867600904365379       -2.0778994256984999       -0.4152734264458127        0.7576134719858190
-       -1.9777391689538202       -1.7915734089974276       -0.2990357058575883       -0.9235083265987739
+       -1.5854749959882468       -1.1351749880449997       -0.1993400584258718        0.9955526175656415
-       -2.1055373974884728       -1.8810064985652646       -0.4264919541335029       -0.9936641819349231
-       -0.5841409319597591        0.0894095028373043       -0.0294113365522736       -0.9934394819660318
+       -0.9802434994730858       -0.4272332264098508       -0.0564967662236855        0.8475065253219278
+       -0.3381192521007437        0.3518030861117610        0.1988774959659273        0.9207393412409772
-       -0.8857753891287973        0.3982976077758408        0.3632164847769540       -0.6738758902636315
+       -4.3835171113787208        2.7251014614678413       -0.3301365784843091        0.1207489421105395
+       -1.0862112467867679        1.5628093754567962        0.4001267286819031        0.4308753055723465
-       -1.5856605642271044        1.5666855753337146       -0.0887402919375721       -0.7095764258838037
+       -2.0025842523884654        1.3289367486122399        0.0286875160168556        0.9977500474782615
-       -1.7575883073021801        1.5726751072461775        0.2905011967799745       -0.9963537733476465
-       -0.8574588430981539        4.0675294363873977        0.2940006193625670       -0.1586318904925156
+       -0.8050773373854315        4.1315033620065922        0.4603443460548138        0.3123697133706422
