25
s                      x[A]                      y[A]                      z[A]                      q[e]
N 0.0653570239080404 -0.0035583565797682 0.2443636727433591 0.1158659338886357
O -0.1738249480630564 0.4400054541314650 0.3071165303079850 -0.2341991647481463
N -0.0839217720665288 -0.0061777309918558 -0.3910062789095523 0.0569852111266852
N -0.5105264157269435 -0.0324968854992456 0.1395693934358747 0.3189271149812888
O -0.2397677614053029 -0.3395446814279298 0.2740432932943412 -0.2877498234141676
N 0.0397349030764698 0.1147840760759911 -0.5523659560858991 0.5692545008206258
O -0.1602427967826939 -0.4970505683280119 0.0424661695409143 -0.2058946535748549
O -0.0730219133786589 0.1671466277259423 -0.2747244307209005 -0.9992971180892700
N -0.1842371769990556 -0.0182163734288188 0.2438946570783775 0.6691943173322236
N 0.0174661165540710 -0.0207512892897423 0.3799501021022437 0.0628076875181509
N 0.0593727372423285 0.0047098133698351 0.2966524991456166 0.7576134719858190
O 0.0358593095122635 -0.0754144556039498 -0.0569548713973620 -0.9235083265987739
N 0.1082388775475641 -0.0098515158230835 -0.4752090294015223 0.9955526175656415
O 0.0692507733289417 0.0516215786578194 0.0965257479098481 -0.9936641819349231
O -0.0430853134690691 0.1160858389816694 -0.1240323074272977 -0.9934394819660318
N -0.0259783846387429 -0.0526262704095980 0.2968985700299324 0.8475065253219278
N -0.0780675656453990 0.0198554451345239 -0.4041272529413764 0.9207393412409772
O 0.1556596526523266 -0.2566999799935800 -0.2265524673732057 -0.6738758902636315
N -0.0645001144123024 0.0228264536131942 0.2204951714497028 0.1207489421105395
N 0.2614226279654882 0.0756556701279600 -0.4891446654312377 0.4308753055723465
O 0.3494863923019326 -0.2118950220290829 -0.1259693101147938 -0.7095764258838037
N 0.4480523148922705 -0.0079174789373265 0.1039917213404529 0.9977500474782615
O 0.3051926217288826 0.1261417258392724 -0.0349809926488895 -0.9963537733476465
O -0.0341090371708247 -0.3707319473468768 -0.1402954977294592 -0.1586318904925156
N -0.0307075739443654 -0.2016372430002947 -0.0949479387377395 0.3123697133706422
