21
s                      x[A]                      y[A]                      z[A]                      q[e]
N       -2.1779489943505435        1.5298332134644343        0.0308732823142801        0.0690680479201058
O       -1.8298001903325665       -0.3322268882537379        0.4035790357378009       -0.3117950550350966
N       -1.9590914153823227       -0.4317885437489701        0.0576591697341976        0.5776243102962968
N       -3.2871614772927242       -0.6924012629725765        0.1016156084659488        0.0604184539076988
O       -1.8438204501280824       -0.3543898268522579       -0.2683572069121876       -0.3968494342195521
O       -0.9185384708275677       -0.1825072250168537        0.0661147435018349       -0.9828651838991298
N       -0.7571897401420808       -0.0363888949909738        0.0581060657600300        0.7759263489545838
N       -0.9369117567452169       -1.4137391762935541        0.0113497185749298        0.9970342621901004
O       -0.9607317374326499       -1.4119560617263618       -0.2688968220960801       -0.3970377457969525
O       -0.9785549221660852       -1.4233263533201961        0.2827755100975712       -0.3893757401670396
N        1.8454315240992514       -1.1820662261834298       -0.1925848115365266        0.1691966627363242
O        1.5176070382742970       -0.8530117446399221       -0.1400621132046391       -0.6800109224217911
O        0.3454495077589347        0.4409882298327137       -0.3937507783529025       -0.9821368279659007
N        0.2000369580013633        0.4996212505630684       -0.2654549167210338        0.8921713087406896
O        0.5568972744917372        0.5201347049363964        0.2709445343760234       -0.3335771210350215
N        0.7982701493824411       -0.0772079509024195       -0.1412010972642223        0.9988617281482304
N        2.2123961382912674        1.7416182271226075        0.2908131983353226        0.0655379221577991
N        1.0385975515297807        1.0970861322172676        0.1885918839548164        0.9908754307264420
O        0.9095340901582276        1.1329013682416282       -0.1684950305620454       -0.6595771554465193
O        0.9509170874832613        1.0917408993433271        0.5502811444568679       -0.5578053818499882
N       -0.2664741809165086        2.2500480885268370       -0.0471040252678435        0.0943160920587207

        RMSE         7.496361198E+00 kcal/mol

Coordinates in bohr
s                   x[bohr]                   y[bohr]                   z[bohr]                      q[e]
+       -4.1157271145388261        2.8909657910768440        0.0583420481679303        0.0690680479201058
-       -3.4578212240391575       -0.6278178303126469        0.7626538475208009       -0.3117950550350966
+       -3.7021462298081294       -0.8159620917958191        0.1089600394189204        0.5776243102962968
+       -6.2118349222386104       -1.3084487559392739        0.1920256700723972        0.0604184539076988
-       -3.4843156752604498       -0.6696997143991880       -0.5071216248568530       -0.3968494342195521
-       -1.7357861455609378       -0.3448886711991589        0.1249387580733606       -0.9828651838991298
+       -1.4308812338751142       -0.0687650455409846        0.1098045505142993        0.7759263489545838
+       -1.7705066239700258       -2.6715798560251596        0.0214478597076389        0.9970342621901004
-       -1.8155198637829690       -2.6682102578428517       -0.5081413497675484       -0.3970377457969525
-       -1.8492008016126027       -2.6896969949217939        0.5343682690710442       -0.3893757401670396
+        3.4873601638338130       -2.2337814296401697       -0.3639325497269464        0.1691966627363242
-        2.8678616684056171       -1.6119585791684223       -0.2646790345096384       -0.6800109224217911
-        0.6528049598386055        0.8333469789342802       -0.7440811327728344       -0.9821368279659007
+        0.3780150655922866        0.9441473300229420       -0.5016370912589696        0.8921713087406896
-        1.0523833288032951        0.9829121406756071        0.5120109651603780       -0.3335771210350215
+        1.5085119564611222       -0.1459018819133673       -0.2668314024435128        0.9988617281482304
+        4.1808227823910178        3.2911814643671367        0.5495572985222081        0.0655379221577991
+        1.9626649269623597        2.0731923259284515        0.3563870101587275        0.9908754307264420
-        1.7187703321665184        2.1408733131331243       -0.3184094612629124       -0.6595771554465193
-        1.7969728633613860        2.0630912997199102        1.0398806550269766       -0.5578053818499882
+       -0.5035632214379021        4.2519746564256122       -0.0890137071628696        0.0943160920587207
