30
s                      x[A]                      y[A]                      z[A]                      q[e]
N 1.9079054241776030 1.3977001707176160 -0.6461703205405362 0.2137068255539760
N 1.5606132263809365 0.6328664792372032 -0.5914014375767696 0.4524136045707061
O 1.4153548177964912 0.6428416665251603 -1.1272741458335778 -0.5303393512711568
N 1.1137719410647016 0.8379471273661731 -1.6750698284549927 0.2065219334641430
N 3.2273350084965449 0.7670921689652991 -1.0930126705395065 0.0640972179527254
N 1.6389644642590528 1.8076139788437449 -0.0350578581309673 0.2729192555687945
O 1.7881232314920115 1.4172583284180604 -0.3256614128525928 -0.5760168259183410
O 2.6511162214899380 -1.1539455228154352 0.2393855848196980 -0.7855321009151053
O 2.2741685203749880 -1.4470048575095051 0.5163129374801332 -0.7445427033607991
N 2.4666389223264118 -1.3081428880903150 0.4141491659646155 0.9977538426035523
N 1.7788380174961025 -0.1619224508973727 -0.0814030375042822 0.2084365764815679
N 1.3474723757573210 -0.6854228470636695 0.3268129590501905 0.3300899125146088
N -0.1266494596506496 -0.6836891852650647 0.3402469801916879 0.6266498413516267
O 0.0118515201232156 -0.2286731431331155 0.3151126603982203 -0.5811225412727979
N 0.1356671138510058 -0.3886589782071452 1.8616295523964772 0.5003074335780895
O 0.1370431279913584 -0.4798647379843751 1.6089970061540997 -0.5967490130385100
N -0.0873282490093085 -1.5105618101442801 0.6098094180187035 0.9708061175491041
O -0.1779786177356514 -1.6152987758783237 0.2316759212566540 -0.1568654630532827
O -0.0617551512702139 -1.5231179328286808 0.6763788428271132 -0.7813807259506527
N -0.6935529720089564 -0.0158131388054781 -0.3399385626905040 0.1400529194232831
N -0.7204335622340141 0.4737136405658848 0.1347619138129347 0.1778327620465852
N -0.9837721512387044 0.9875781706749732 0.1874386058080562 0.7120624373414439
O -0.9760788935246886 1.1468866459728568 0.2028922605256349 -0.9970019554920370
N -1.7906544601677599 -0.1267095189556075 0.4828109644662522 0.9931708722557875
N -2.4609475067837239 -0.3794566976414312 0.7868652872527956 0.8506195801821621
O -2.1859958670548028 -0.3724647992185963 0.7086731916981930 -0.8089940633040810
O -2.3404369690964977 -0.2917226936650125 0.6592148121804793 -0.9883399134133223
N -1.2252551884976550 -0.1221215029515254 -1.7362853369373341 0.2529889584625400
N -1.2086213737019937 0.0484758294204100 -0.9064002467656572 0.5419198115726583
O -1.1859217459145621 -0.1065773910014836 -1.3187295132107573 -0.9654652454832693
