25
s                      x[A]                      y[A]                      z[A]                      q[e]
N 1.9062675301914693 1.2770596061912478 0.3586891339772435 0.1158659338886357
O 1.8180375227212520 -0.2474864342907658 -0.3955053248562098 -0.2341991647481463
N 3.2866160512678295 -0.6591494532479621 0.0743887827853018 0.0569852111266852
N 2.0883981153667763 -0.5386077298665819 0.0593044414903054 0.3189271149812888
O 1.8065653732013174 -0.4287346764328697 0.3661758236531327 -0.2877498234141676
N 1.2979436349742848 -0.9465258891469626 -0.0354344371393265 0.5692545008206258
O 0.8047346484398452 -0.5220635985509553 -0.6225755016845594 -0.2058946535748549
O 1.0950207054884342 -0.7287582355753972 0.0273372668857180 -0.9992971180892700
N 0.6588130690310141 -0.4141411217765207 -0.1352450350112152 0.6691943173322236
N 0.7901465100324924 -2.1287565242125428 -0.3714995767175915 0.0628076875181509
N -0.5560039928516562 1.6282874572399539 -0.0547937851512739 0.7576134719858190
O -0.5423005871341896 1.2739052366539261 -0.1337647334093404 -0.9235083265987739
N -0.6169641167411212 0.8571775893690753 -0.0613957693119934 0.9955526175656415
O -0.5661313758731473 1.4286088915524535 -0.0060607122165088 -0.9936641819349231
O -0.4742828438790176 -0.2028047137798253 0.0627835208616424 -0.9934394819660318
N -0.4947947183546943 0.2173458642261040 -0.1074867973765872 0.8475065253219278
N -0.4489684111334564 -0.4839506483299722 -0.0334109080338751 0.9207393412409772
O -0.6954537691908815 -0.3044907146115768 -0.2973867036357689 -0.6738758902636315
N -2.8398054246951330 -0.0544534138628870 0.1811632372011921 0.1207489421105395
N -1.1572395398374158 -0.7181671376599832 -0.0366322085271787 0.4308753055723465
O -1.3889587733240316 -0.4467061465448198 0.2715107663943228 -0.7095764258838037
N -1.5541478265052167 -0.2464050692939451 0.0796873832236636 0.9977500474782615
O -1.5247737467393705 -0.4436839212678467 -0.0541498147125010 -0.9963537733476465
O -1.7588301695509658 -1.8940208944325547 0.5007436144255830 -0.1586318904925156
N -1.7709073921895253 -1.8524499202945461 0.3310763373825358 0.3123697133706422
