25
s                      x[A]                      y[A]                      z[A]                      q[e]
N 1.8276255421903636 1.1864635408489912 0.7716875033759139 0.1158659338886357
O 1.8474755633240769 -0.1121174875925156 -0.3355444036437933 -0.2341991647481463
N 3.2978043015548257 -0.5847469291743421 0.1131032783090899 0.0569852111266852
N 2.0965714040965251 -0.4977463986429408 0.0568940079903114 0.3189271149812888
O 1.7907223041455915 -0.4692988396846617 0.3590154437938261 -0.2877498234141676
N 1.3466294037459619 -0.8547995420889825 -0.1935762947889743 0.5692545008206258
O 0.7930098301248849 -0.4631828667051281 -0.7489685333663690 -0.2058946535748549
O 1.1368110977723820 -0.6476853056878302 -0.1186931361470079 -0.9992971180892700
N 0.6740804609074496 -0.3587591468733928 -0.2535543354182981 0.6691943173322236
N 0.8949454754717741 -1.9649511754332147 -0.8314374904605989 0.0628076875181509
N -0.6394934492871169 1.6211251508583806 -0.1044780527178156 0.7576134719858190
O -0.6133980595375936 1.2670901102723062 -0.1817806520061606 -0.9235083265987739
N -0.6623340432556085 0.8478061933823087 -0.1019926403416237 0.9955526175656415
O -0.6363626936581183 1.4217211107801875 -0.0537140801232354 -0.9936641819349231
O -0.4589522475042053 -0.2054188966767100 0.0193741609760727 -0.9934394819660318
N -0.5116820616760349 0.2114936726849011 -0.1519616553140999 0.8475065253219278
N -0.4261891694626732 -0.4860055065794580 -0.0765159457093588 0.9207393412409772
O -0.6982534973505767 -0.3213964387592474 -0.3246362444860507 -0.6738758902636315
N -2.8022863587618962 -0.1669387006691372 0.3632804372140846 0.1207489421105395
N -1.1158076358308144 -0.7535437142697897 0.0010250800034906 0.4308753055723465
O -1.3312041516590056 -0.4860069166960129 0.3241883210024387 -0.7095764258838037
N -1.5235740217521410 -0.2988143693468407 0.1447773745204719 0.9977500474782615
O -1.4968284359650921 -0.4976683365730982 0.0127307552255035 -0.9963537733476465
O -1.6031831858551551 -1.9435801648040880 0.6161061342618354 -0.1586318904925156
N -1.6331709124621123 -1.9069448968354734 0.4476291792355743 0.3123697133706422
