23
s                      x[A]                      y[A]                      z[A]                      q[e]
N -1.5618553300978233 -1.5378120687623671 0.1916726356969006 0.2856065124296451
O -1.5379044004967695 -1.3024384838771761 0.1134163163387928 -0.2980193526493612
N -2.6347616135816003 0.0310702260287968 -0.3749299200145291 0.9235469647741466
O -2.5586313410609027 -0.0089627517419392 -0.3406230246954328 -0.9987019282037162
O -1.4795015931505562 -0.0985256437696281 -0.0586176497564522 -0.9994297377915048
N -1.6558380206153493 0.2491667993248104 -0.1900771334647261 0.3910255639585828
N -1.9726147498663187 -0.3435483676991718 -0.1143556292755817 0.3788084070601841
N -1.1534302414686677 -0.5527221813147907 0.0894971709462230 0.3521750120262308
N -1.1313058420558042 0.6629770425368171 0.0472186655307737 0.5091785922378865
N -0.6062495918023505 0.4541127819044338 0.4587973860141639 0.9946620798872232
O -0.7487240669504869 0.5539984105104663 0.4180263031029293 -0.5088390984708862
O -0.8334785432498291 0.5599096331030998 0.1608674620685001 -0.9513197152299744
N -0.8979980041219738 1.8236602934614208 -0.3902223193792017 0.0534150746794947
N -0.4558828723088975 1.8749383718379491 -0.3210077345274706 0.0449830180293293
O -0.8773546878727492 0.2129999535998264 0.4170769370672189 -0.1594766348608674
O 0.8163444850490403 0.1662766123567465 1.4479596928728209 -0.2085098172073890
N 0.7932662483483413 -0.1290616128102104 1.3644017823886854 0.7433887315217406
O 0.7018645112596106 -0.2822377215048350 1.3598504242636369 -0.4563903046399361
N 0.6226142616600590 0.1718040314503751 -0.0980462212240952 0.2740207269363132
N 1.3036013013448819 -0.1389229043812132 -0.0281502819407934 0.2947455612059413
O 1.5648284015748493 -0.1185515532214800 -0.7130284129621700 -0.8294346811293033
N 1.7763410315124655 -0.1879101174323743 -0.5803314178399508 0.8271270632704910
O 1.9180762441717611 -0.2737047975313738 -0.2864099838694800 -0.6625620378342709
