25
s                      x[A]                      y[A]                      z[A]                      q[e]
N 0.0653895287622592 -0.0036000374797659 0.2443307583723317 0.1158659338886357
O -0.1738509186272626 0.4400532194872251 0.3070562627130790 -0.2341991647481463
N -0.0838950963065138 -0.0061341351353193 -0.3909992539625590 0.0569852111266852
N -0.5105462464273138 -0.0325770523014912 0.1396427504053935 0.3189271149812888
O -0.2397150112972165 -0.3394858138636642 0.2739618837268087 -0.2877498234141676
N 0.0398209363768037 0.1148846034538756 -0.5523488887747037 0.5692545008206258
O -0.1602670906330047 -0.4970843285928943 0.0424071248125752 -0.2058946535748549
O -0.0731111204388029 0.1670573274575068 -0.2747378049224106 -0.9992971180892700
N -0.1841609330826476 -0.0181935587273298 0.2439248430338050 0.6691943173322236
N 0.0174861822426804 -0.0208416924983987 0.3799719201194350 0.0628076875181509
N 0.0594254401403004 0.0046010233250339 0.2966164610025979 0.7576134719858190
O 0.0358036179134054 -0.0753100685015345 -0.0569160985811046 -0.9235083265987739
N 0.1082946716580810 -0.0099468910326405 -0.4752547274479477 0.9955526175656415
O 0.0691967187377795 0.0517272243147916 0.0965656658094181 -0.9936641819349231
O -0.0431372819307959 0.1161071873985247 -0.1239668224828293 -0.9934394819660318
N -0.0259223298076101 -0.0526857552217076 0.2968515711122223 0.8475065253219278
N -0.0780152835063426 0.0198572064413874 -0.4041831186313116 0.9207393412409772
O 0.1555998831026965 -0.2566854282142477 -0.2265266066461600 -0.6738758902636315
N -0.0645302433996889 0.0228581130448171 0.2205066516240529 0.1207489421105395
N 0.2613634161987600 0.0756528990284216 -0.4891238256338996 0.4308753055723465
O 0.3495591225761726 -0.2119137894745591 -0.1259758107753458 -0.7095764258838037
N 0.4479910083090828 -0.0078803076878679 0.1040113485261965 0.9977500474782615
O 0.3052495443801777 0.1261231637661056 -0.0350078448466503 -0.9963537733476465
O -0.0341041652545635 -0.3706957994788477 -0.1402537110946608 -0.1586318904925156
N -0.0307211394491861 -0.2016741851455473 -0.0949908770654720 0.3123697133706422
