23
s                      x[A]                      y[A]                      z[A]                      q[e]
N        2.3541866367934534        0.3903861223394716        0.0001834223455621        0.2856065124296451
O        2.1518618942433596        0.4259903833902123        0.0096580330270833       -0.2980193526493612
N        1.2706053549528182        2.0608783879645016       -0.0870147842160583        0.9235469647741466
O        1.2789071474083027        1.9590125213284422       -0.0983844551115252       -0.9987019282037162
O        1.0034812430640307        0.8656940382732077       -0.0053103666553484       -0.9994297377915048
N        0.7434380955828638        1.1886107514498472       -0.0461471944720933        0.3910255639585828
N        1.3886932037718958        1.2448262198859104       -0.0791216080626362        0.3788084070601841
N        1.3072942408502997        0.3857035072383269        0.0071295071651879        0.3521750120262308
N        0.2970047971231581        0.7489944369377607       -0.0610535325650687        0.5091785922378865
N        0.5589254109020232        0.1154113688886932        0.0143197439202477        0.9946620798872232
O        0.5765291871984243        0.2667196392430428       -0.0603919073577950       -0.5088390984708862
O        0.3600199917374826        0.4142881774937055       -0.0175826049867247       -0.9513197152299744
N       -0.0000269978994068        0.0000275239687949        0.0000038933043260        0.0534150746794947
N        0.0030282379851795       -0.0289386660145506        0.0169292439498371        0.0449830180293293
O        0.5969736602826237        0.2818346402097613        0.3096903061755729       -0.1594766348608674
O        1.2128085957065826       -1.4791004885663230       -0.2157146404118758       -0.2085098172073890
N        1.1219996921359543       -1.5203345176272343        0.0981198761060884        0.7433887315217406
O        1.1200255850977090       -1.5026081262600639        0.2601174035575381       -0.4563903046399361
N       -0.2410268414128060       -1.0716117993101164       -0.1697134130438054        0.2740207269363132
N       -1.2949758125490460       -0.1978732474864153        0.1087055907538803        0.2947455612059413
O       -1.7972208180825751        0.3559755505235778        0.0758677273500469       -0.8294346811293033
N       -1.9548278563878165        0.1609905668503174        0.0818378908859602        0.8271270632704910
O       -1.9885864898958627       -0.1949245076825759        0.0951943749020926       -0.6625620378342709

        RMSE         2.466236311E+01 kcal/mol

Coordinates in bohr
s                   x[bohr]                   y[bohr]                   z[bohr]                      q[e]
+        4.4487679917522884        0.7377228544010753        0.0003466179984015        0.2856065124296451
-        4.0664296399288471        0.8050051566862806        0.0182510373318139       -0.2980193526493612
+        2.4010961344009578        3.8944957311279325       -0.1644341110341608        0.9235469647741466
-        2.4167842484922155        3.7019971416533681       -0.1859196751631821       -0.9987019282037162
-        1.8963047214249957        1.6359246407779695       -0.0100351386043719       -0.9994297377915048
+        1.4048943918835517        2.2461487900148374       -0.0872055590104977        0.3910255639585828
+        2.6242498274134829        2.3523806293733158       -0.1495181698441983        0.3788084070601841
+        2.4704280805953696        0.7288739943089789        0.0134728159516943        0.3521750120262308
+        0.5612577245099339        1.4153943553038622       -0.1153744555397005        0.5091785922378865
+        1.0562159511638047        0.2180958789638144        0.0270603941959580        0.9946620798872232
-        1.0894822671378293        0.5040270704502648       -0.1141241651002540       -0.5088390984708862
-        0.6803391840734322        0.7828911924781651       -0.0332263079970187       -0.9513197152299744
+       -0.0000510186358415        0.0000520127629080        0.0000073572788991        0.0534150746794947
+        0.0057225404346974       -0.0546861532035948        0.0319916345762560        0.0449830180293293
-        1.1281167220462602        0.5325902826633934        0.5852298623810138       -0.1594766348608674
-        2.2918760884865499       -2.7950948354212182       -0.4076415916300627       -0.2085098172073890
+        2.1202721309849530       -2.8730158573955094        0.1854196933043606        0.7433887315217406
-        2.1165416093403304       -2.8395178325188777        0.4915506531889367       -0.4563903046399361
+       -0.4554747191543602       -2.0250528135051979       -0.3207118704694945        0.2740207269363132
+       -2.4471496248099114       -0.3739262453042614        0.2054237948309345        0.2947455612059413
-       -3.3962551331473327        0.6726962978486380        0.1433692264524950       -0.8294346811293033
+       -3.6940892709887803        0.3042280801293097        0.1546512004595661        0.8271270632704910
-       -3.7578838426886914       -0.3683539346597688        0.1798912972491113       -0.6625620378342709
