23
s                      x[A]                      y[A]                      z[A]                      q[e]
N 2.3543228027316729 0.3902613462257698 0.0001654342949034 0.2856065124296451
O 2.1517279411593613 0.4261230565095611 0.0096762635551635 -0.2980193526493612
N 1.2710192134917275 2.0605802146947161 -0.0870617543444111 0.9235469647741466
O 1.2784625561613692 1.9593564346264689 -0.0983339727642683 -0.9987019282037162
O 1.0030099233758634 0.8661325142650158 -0.0052475914200141 -0.9994297377915048
N 0.7436289249331013 1.1884492861910094 -0.0461709115918586 0.3910255639585828
N 1.3888656870671428 1.2446703936365617 -0.0791428891870415 0.3788084070601841
N 1.3074558775598422 0.3855399435434372 0.0071068407142278 0.3521750120262308
N 0.2972609627103506 0.7487627785209443 -0.0610866120927386 0.5091785922378865
N 0.5594048222509136 0.1149167071743623 0.0142499851628445 0.9946620798872232
O 0.5762831617924782 0.2669679556604097 -0.0603575546770678 -0.5088390984708862
O 0.3595499201734904 0.4147448178306589 -0.0175174829389579 -0.9513197152299744
N 0.0000000000000000 0.0000000000000000 0.0000000000000000 0.0534150746794947
N 0.0030509611290624 -0.0289619334928332 0.0169259359240024 0.0449830180293293
O 0.5968960884128556 0.2819121092665347 0.3097027978397718 -0.1594766348608674
O 1.2127396942253674 -1.4789862489270147 -0.2156962585342267 -0.2085098172073890
N 1.1222493324478373 -1.5207514409970537 0.0980671898479316 0.7433887315217406
O 1.1198711857430819 -1.5023548587085487 0.2601461541503381 -0.4563903046399361
N -0.2408821720099160 -1.0717741086942223 -0.1697347890808371 0.2740207269363132
N -1.2948187836269380 -0.1980215182160573 0.1086836388251399 0.2947455612059413
O -1.7976389418523189 0.3563699156638764 0.0759233587196669 -0.8294346811293033
N -1.9544126243385991 0.1606027697078221 0.0817822021234631 0.8271270632704910
O -1.9889306329294565 -0.1946135447481129 0.0952403898281620 -0.6625620378342709
