21
s                      x[A]                      y[A]                      z[A]                      q[e]
N -1.9422565850260105 1.4459786801443371 -0.1641201186405082 0.0707249461841811
O -1.6315871481017985 -0.0433807798986321 0.2831856564258384 -0.3496602100029151
N -1.4821926205228992 0.1351321951830470 -0.2112003523879144 0.9824851761690530
N -3.0476940504174994 -0.6418733665698668 0.0473593553814118 0.1071394941056757
O -1.5305605045661417 0.0112608525304652 -0.3453260484445760 -0.8194842575378962
N -0.5078370825448879 -0.6256104006800303 -0.0787245977746273 0.3116552922920345
N -0.7499201162223644 -1.9946527456130621 0.2316090766598878 0.0918298459672651
N -1.2744531478368832 -0.9610144079216660 0.0395097417519028 0.5593901217632046
O -0.9726259781340783 -0.7771540317574579 0.0082973772370947 -0.9963138680841535
N 0.7357966281272070 0.8793471778924500 -0.0692141102664560 0.9989733053171830
O 0.7089992145895327 0.9767418858733539 -0.0825766809791724 -0.8354521971080898
N 0.5413919504028175 1.7312887236075174 0.0270355725013014 0.2899344186932475
O 0.5446765447363853 1.3441976960029085 0.0304218621842775 -0.8678253524624289
N 0.5158799571835337 -0.4065952690421747 -0.0739269235323779 0.9219570073558310
O 0.6276433911402387 -0.2330942631744185 -0.2412443633724919 -0.9704818863270434
O 0.7928148955215512 -0.2555416875472081 0.4116295043039008 -0.3320651923316272
N 0.6065819997699711 0.3403139806964835 -0.0110722859205394 0.9769593393400061
O 1.4808400071817345 -0.5678585959785345 -0.5508314292664181 -0.1970026432733326
O 1.5252184622519431 -0.5324409236566344 0.4518211764846097 -0.1946060569702309
N 2.7675949962610531 -0.0383082694611009 -0.0892254132646104 0.1283355164991325
N 1.6752634468390359 -1.9237607662541227 -0.0424966036758837 0.1235072004109040
