21
s                      x[A]                      y[A]                      z[A]                      q[e]
N -2.0197798047092932 1.5175028690928247 -0.4911819893853882 0.0707249461841811
O -1.6982077206711346 0.1182319761561088 0.2164451230500474 -0.3496602100029151
N -1.5397016852251459 0.2227031580207718 -0.2968323390458746 0.9824851761690530
N -3.1097839676699124 -0.5047784876489041 0.0691020186809955 0.1071394941056757
O -1.5865443938316166 0.0807406692244442 -0.4126068673316632 -0.8194842575378962
N -0.6222771096692274 -0.3342403601194692 0.2420108298457529 0.3116552922920345
N -0.8451878826755160 -1.8242068452290114 0.4618530715617137 0.0918298459672651
N -1.3966285974408987 -0.6722461516469544 0.2126525328815853 0.5593901217632046
O -1.0559024601726388 -0.5741147563256733 0.2041792534762726 -0.9963138680841535
N 1.3045820931133361 -0.4722154874165844 0.0172793145090600 0.9989733053171830
O 1.3555078218171848 -0.5601220789511632 0.0247604282530573 -0.8354521971080898
N 1.7569747174901815 -1.2119512697306050 -0.1322669802231177 0.2899344186932475
O 1.4864880220434049 -0.9359259060099507 -0.1052824372568336 -0.8678253524624289
N 0.2437898576084786 0.2887731218966251 0.1397779647865615 0.9219570073558310
O 0.4642709957549426 0.2431027251358398 0.2817478943729361 -0.9704818863270434
O 0.4866036967175443 0.3815192397749272 -0.3784063563647922 -0.3320651923316272
N 0.8233237098187061 -0.1760546489007558 0.0018834147379548 0.9769593393400061
O 0.8850633072665685 1.0596355609502854 0.5580730767619865 -0.1970026432733326
O 0.7969302186153315 1.1035674075828201 -0.4418510578671268 -0.1946060569702309
N 2.0998241512606750 1.5948655924350010 -0.0647053362965073 0.1283355164991325
N 0.0209882876288039 2.1863016877063686 0.2128889770060688 0.1235072004109040
