21
s                      x[A]                      y[A]                      z[A]                      q[e]
N       -1.9802810317118775        1.4269380177683488        0.0453773251491728        0.0707249461841811
O       -1.6271151727377513       -0.0992072591076393        0.2924251868742970       -0.3496602100029151
N       -1.4947765329116396        0.1392015511639873       -0.1820638728546679        0.9824851761690530
N       -3.0383702624885047       -0.6946547847504702        0.0109606346273346        0.1071394941056757
O       -1.5456254448886306        0.0313198499602650       -0.3287855674699566       -0.8194842575378962
N       -0.4810237471454643       -0.6535512428092649       -0.1262118124786623        0.3116552922920345
N       -0.7286603019059230       -2.0177781934829198       -0.0167504084843953        0.0918298459672651
N       -1.2417315566100255       -1.0121589027672679       -0.0398739519536703        0.5593901217632046
O       -0.9446615656907315       -0.8193017862227103       -0.0586201761777808       -0.9963138680841535
N        0.7187618647774914        0.8870093749594228       -0.0842344212893836        0.9989733053171830
O        0.6900615967284477        0.9834903811342323       -0.0998765376265454       -0.8354521971080898
N        0.5009324948950435        1.7359830118771256       -0.0066049299231932        0.2899344186932475
O        0.5130549068391022        1.3488740847204850        0.0023920159046641       -0.8678253524624289
N        0.5330144121711320       -0.4046800385235089       -0.0785059067789497        0.9219570073558310
O        0.6472419061498003       -0.2281705601045625       -0.2417531486332384       -0.9704818863270434
O        0.7852145161368789       -0.2455757561797840        0.4186422888639826       -0.3320651923316272
N        0.6013042137390749        0.3449763179565457       -0.0129994224735300        0.9769593393400061
O        1.5210887084231428       -0.5398559909841337       -0.5142932141796822       -0.1970026432733326
O        1.5223712611391345       -0.5025846863013017        0.4897759708784503       -0.1946060569702309
N        2.7728006477618554        0.0245696474959809        0.0001556874417141        0.1283355164991325
N        1.7299052666699035       -1.8899962723036063        0.0044409394378327        0.1235072004109040

        RMSE         3.856810604E-01 kcal/mol

Coordinates in bohr
s                   x[bohr]                   y[bohr]                   z[bohr]                      q[e]
+       -3.7421888013745170        2.6965220515858555        0.0857507168377863        0.0707249461841811
-       -3.0748020510513556       -0.1874745493707701        0.5526035153782466       -0.3496602100029151
+       -2.8247182659643983        0.2630528079388413       -0.3440508570354983        0.9824851761690530
+       -5.7416876638386860       -1.3127072949172476        0.0207125976068720        0.1071394941056757
-       -2.9208087833784240        0.0591859387153322       -0.6213146765214544       -0.8194842575378962
+       -0.9090031419464042       -1.2350328578621004       -0.2385057593823124        0.3116552922920345
+       -1.3769684090956111       -3.8130481676037737       -0.0316536845250523        0.0918298459672651
+       -2.3465325633313814       -1.9127031216740358       -0.0753508487321009        0.5593901217632046
-       -1.7851516404016716       -1.5482559900593202       -0.1107760784020931       -0.9963138680841535
+        1.3582630738528121        1.6762047893868399       -0.1591799865733692        0.9989733053171830
-        1.3040274275128918        1.8585274673658354       -0.1887393024731545       -0.8354521971080898
+        0.9466252226939339        3.2805324508951714       -0.0124815086326764        0.2899344186932475
-        0.9695332612481835        2.5490025978493165        0.0045202549475544       -0.8678253524624289
+        1.0072512599253352       -0.7647344412491551       -0.1483546630429381        0.9219570073558310
-        1.2231099395424012       -0.4311798684899373       -0.4568472408839201       -0.9704818863270434
-        1.4838403852325874       -0.4640709222319996        0.7911192704877308       -0.3320651923316272
+        1.1363002820506078        0.6519107607067308       -0.0245653482640933        0.9769593393400061
-        2.8744410714461179       -1.0201799701476433       -0.9718733229810238       -0.1970026432733326
-        2.8768647448208040       -0.9497474119585969        0.9255424477904800       -0.1946060569702309
+        5.2398338247619671        0.0464299047664446        0.0002942066260128        0.1283355164991325
+        3.2690471769932077       -3.5715753327900321        0.0083921592772484        0.1235072004109040
