25
s                      x[A]                      y[A]                      z[A]                      q[e]
N -1.6562834622983724 0.5714685651221612 -1.4467383526268103 0.1158659338886357
O -1.8306508118264921 0.2287001850945341 0.2210708599401724 -0.2341991647481463
N -3.3745893238529874 -0.2666349181142548 -0.0232351612267789 0.0569852111266852
N -2.1091633420305516 -0.2842516321262211 0.0441340051416006 0.3189271149812888
O -1.8360035007246289 -0.4854963667372801 -0.2052601032661603 -0.2877498234141676
N -1.3902721671656915 -0.4082369023136909 0.4971324449662800 0.5692545008206258
O -0.7799294623469621 -0.2515196299881395 0.8453148395193470 -0.2058946535748549
O -1.1011129744348032 -0.3656298748912468 0.3724182865754611 -0.9992971180892700
N -0.6392536763716747 -0.1414431867741426 0.4496612560732642 0.6691943173322236
N -1.1218553991982179 -1.1536127016861188 1.8086690372783178 0.0628076875181509
N 0.8118360118184369 1.3005387921451665 0.0621409239673668 0.7576134719858190
O 0.7363755276655587 1.0667934077899406 0.1227542843382175 -0.9235083265987739
N 0.6914121295845457 0.6272575618524123 0.0819391137345433 0.9955526175656415
O 0.7632998999751960 1.1674448822634740 0.0503082149513729 -0.9936641819349231
O 0.3692347097845016 -0.2026830202853525 0.0558801916433563 -0.9934394819660318
N 0.4837982712429027 0.1375396465342310 0.1595132002970079 0.8475065253219278
N 0.2970177314523071 -0.4315865937998831 0.1324101569156970 0.9207393412409772
O 0.6158093278437164 -0.3463938559352887 0.2542510782501553 -0.6738758902636315
N 2.6941499393926280 -0.5590514684263674 -0.5057901722465076 0.1207489421105395
N 0.9104372696651110 -0.8192460343799939 0.0036919618096114 0.4308753055723465
O 1.1376655026802800 -0.6274282591084788 -0.2643469907544874 -0.7095764258838037
N 1.2889587766508308 -0.4583102497045358 -0.1462861357679581 0.9977500474782615
O 1.2546734732195131 -0.6455120931148366 -0.0377334674067710 -0.9963537733476465
O 1.1970574111617613 -2.0110876092695631 -0.5445734454918112 -0.1586318904925156
N 1.2287694165374055 -2.0372064275006063 -0.3767113133122357 0.3123697133706422
