25
s                      x[A]                      y[A]                      z[A]                      q[e]
N 0.0965252665226312 -0.0370449032906970 0.1976974118385276 0.1158659338886357
O -0.2122357802895023 0.4787491191185519 0.3529882912726148 -0.2341991647481463
N -0.0996288075423748 -0.0189632182307423 -0.4088024550503118 0.0569852111266852
N -0.4687401847022216 -0.0377214994786603 0.1543453012139618 0.3189271149812888
O -0.2051022010167605 -0.3479879600478953 0.2617831922187580 -0.2877498234141676
N -0.0243567937549879 0.0777109191928715 -0.4820763471407611 0.5692545008206258
O -0.1035448930601824 -0.4062134263548080 0.0450441071787348 -0.2058946535748549
O -0.0092586015146482 0.1278808788922116 -0.1686484629879205 -0.9992971180892700
N -0.1592116166247817 -0.0547181845918051 0.2936413097166680 0.6691943173322236
N 0.0345492392625649 -0.1024309014686632 0.4979935347400529 0.0628076875181509
N 0.0047673756179155 0.0047707712464673 0.0024276146214953 0.7576134719858190
O -0.0316730452706926 -0.0424629703594035 -0.2434305522365056 -0.9235083265987739
N 0.0299775887965390 -0.0055303279121836 -0.6812827241203405 0.9955526175656415
O -0.0096785614403368 0.0241275719706870 -0.1376665864410210 -0.9936641819349231
O -0.0904464294447618 0.0738231401971330 -0.1425169832207518 -0.9934394819660318
N -0.0808080836209398 -0.0443375897919666 0.2118291996184224 0.8475065253219278
N -0.1288292893965824 0.0105258100612882 -0.3833264049038189 0.9207393412409772
O 0.1236628333870910 -0.1840261446847796 -0.2345703648148304 -0.6738758902636315
N -0.0353473588154855 0.0152223582555995 0.2336261456041672 0.1207489421105395
N 0.3067252989979436 0.0542680299290267 -0.5249361159112528 0.4308753055723465
O 0.3869254961830587 -0.1547976700243424 -0.1930760997064603 -0.7095764258838037
N 0.5182638607679914 -0.0103347115622796 -0.0278199078279888 0.9977500474782615
O 0.3651440429419365 0.0951271092118725 -0.1437328914141368 -0.9963537733476465
O -0.0204650014317998 -0.3371434007761399 -0.0201619557789549 -0.1586318904925156
N -0.0104455239377760 -0.1656966642390752 -0.0394276240035833 0.3123697133706422
