25
s                      x[A]                      y[A]                      z[A]                      q[e]
N 1.6455567010256102 0.1438841744962429 -1.5791942523353752 0.1158659338886357
O 1.8177955077778010 -0.5344886474793012 -0.1056176999883558 -0.2341991647481463
N 3.3850468562531018 -0.1326487880249382 0.0231736733827560 0.0569852111266852
N 2.1278535954885336 -0.1372619357807471 0.0908425129926398 0.3189271149812888
O 1.8575541220725775 0.2523136141691398 0.0822053605234679 -0.2877498234141676
N 1.3590799548018087 -0.2000930943898465 0.7296638044577313 0.5692545008206258
O 0.9978138278846351 -0.0063810954695688 0.0676223845256233 -0.2058946535748549
O 1.0634102102025804 -0.1987291005554429 0.6578973757725923 -0.9992971180892700
N 0.6522258728929946 -0.0161633451984114 0.4330469149777155 0.6691943173322236
N 1.1538736824351714 -0.4638242881645462 2.0220747628070370 0.0628076875181509
N -0.9240233322678252 1.2808030344070791 -0.0246649878060278 0.7576134719858190
O -0.8034411650186528 1.0544593956725412 -0.0322687354611446 -0.9235083265987739
N -0.7429448641163283 0.6161793014673133 0.0171493629795487 0.9955526175656415
O -0.8832078772095412 1.1471052128340355 0.0180958104633698 -0.9936641819349231
O -0.3947261905549610 -0.1922815175340778 0.1939998379704186 -0.9934394819660318
N -0.4796208378998492 0.1468051597883528 0.0639021026363498 0.8475065253219278
N -0.2651940301176094 -0.4022992051626783 0.1684348171451402 0.9207393412409772
O -0.4885804355194291 -0.3346823776409270 -0.0967563172729798 -0.6738758902636315
N -2.6359295904133431 -0.7717838006155398 -0.4781792350351604 0.1207489421105395
N -0.8137092582517422 -0.8451971037215638 -0.0494220698165551 0.4308753055723465
O -1.1646301122144467 -0.6934837183709945 0.0825360119785241 -0.7095764258838037
N -1.2550612261121685 -0.5317852890478413 -0.1034244127183420 0.9977500474782615
O -1.1550540801493057 -0.7123117684165805 -0.1755548310020580 -0.9963537733476465
O -1.1899618162754000 -2.0973363467803350 0.2526631168733585 -0.1586318904925156
N -1.1499352544914716 -2.1140881496684361 0.1039871322582295 0.3123697133706422
