10
s                      x[A]                      y[A]                      z[A]                      q[e]
C -0.9093123142737688 -1.0956190270057844 -0.8969937446717937
C -0.4347776355788011 -0.2207337937724762 -0.0191123754410112
C 0.9406226690396841 -0.0133710607556806 0.4683456218634068
C 1.8664502030654944 0.6645676347195704 -0.2171223242996420
H -1.9682239817197260 -1.1548713230577532 -1.1151527070231142
H -0.2312908753852988 -1.7590358624160372 -1.4183926988944209
F -1.3609763462329434 0.5991827914689183 0.6745090884414566
H 1.1500226597387442 -0.3821324121600466 1.4703260840382182
H 1.6579915167354229 1.0728577903126810 -1.2016171548250778
H 2.8623924395983229 0.8214739538040575 0.1835531969994949
