21
s                      x[A]                      y[A]                      z[A]                      q[e]
N -1.9521533495890571 1.4644611906587994 -0.1921082127782758 0.0707249461841811
O -1.6313008578040564 -0.0056206632233029 0.2977936791310222 -0.3496602100029151
N -1.4890002282716661 0.1482500739549565 -0.2078270433251731 0.9824851761690530
N -3.0511181940908028 -0.6173835637620362 0.0915514488118938 0.1071394941056757
O -1.5406367697242258 0.0185628406155030 -0.3353947979080317 -0.8194842575378962
N -0.5287314681561319 -0.5915914004522463 -0.0783779137782993 0.3116552922920345
N -0.7726609485193078 -1.9660660989666718 0.3221904308052908 0.0918298459672651
N -1.3078153312034124 -0.8988895535682103 0.0373125131142377 0.5593901217632046
O -0.9997542097138378 -0.7259263748575738 0.0060778971749940 -0.9963138680841535
N 0.7751504046665156 0.8667657840501328 -0.0964316306090820 0.9989733053171830
O 0.7524106535134004 0.9645904946728823 -0.1136066692858409 -0.8354521971080898
N 0.6140189667514245 1.7297303104760289 -0.0329415095600318 0.2899344186932475
O 0.6013383623234964 1.3427144362982093 -0.0158817587196165 -0.8678253524624289
N 0.5031391828510444 -0.4072429502208068 -0.0663248366052737 0.9219570073558310
O 0.6235905124660879 -0.2414880437068017 -0.2363636722091295 -0.9704818863270434
O 0.7804710618780875 -0.2563797323747263 0.4199800964779013 -0.3320651923316272
N 0.6223218278371526 0.3373670331600604 -0.0174679458027683 0.9769593393400061
O 1.4665757914492010 -0.6152150253081283 -0.5286740699779385 -0.1970026432733326
O 1.5013450463852411 -0.5605549985383186 0.4740522634657078 -0.1946060569702309
N 2.7708241895045198 -0.1248900475658556 -0.0317741420866282 0.1283355164991325
N 1.6025864336613049 -1.9669511931075516 0.0098677039891036 0.1235072004109040
