21
s                      x[A]                      y[A]                      z[A]                      q[e]
N -1.8225608667442954 1.1541361682699758 -1.2965474783284352 0.0707249461841811
O -1.6883826026023092 0.2903939390397334 0.0470097153749548 -0.3496602100029151
N -1.4797792229468070 0.1293400936493761 -0.4327029869620812 0.9824851761690530
N -3.1313524623446467 -0.2516374000380578 0.0927908549253466 0.1071394941056757
O -1.5267794393366996 -0.0498804123983053 -0.4705134720826470 -0.8194842575378962
N -0.6180663162324243 -0.1769645818933822 0.4457890980808921 0.3116552922920345
N -0.9943904659934625 -1.3086294792801834 1.2874300319195551 0.0918298459672651
N -1.4272913871293960 -0.4004364878572408 0.5458050334132424 0.5593901217632046
O -1.0818359789383307 -0.3521046431620431 0.4816325257804722 -0.9963138680841535
N 1.2179102631884888 -0.5812828988240627 -0.0806440587463652 0.9989733053171830
O 1.2572060239299028 -0.6752882921231329 -0.0798815215871636 -0.8354521971080898
N 1.5379182303097716 -1.3743549678944158 -0.2878149772023588 0.2899344186932475
O 1.3145408157691143 -1.0646577239742869 -0.2229020715982757 -0.8678253524624289
N 0.3008327932914032 0.3150579016095038 0.1958457116642263 0.9219570073558310
O 0.5330610379831582 0.2394420922647896 0.3019056437665228 -0.9704818863270434
O 0.4683589207621722 0.3769556625785819 -0.3557599748240823 -0.3320651923316272
N 0.7838541995360585 -0.2227123839519468 -0.0244472003230178 0.9769593393400061
O 1.0858772200233278 0.9672352382022037 0.5749985408772770 -0.1970026432733326
O 0.8784267762495335 1.0669805841280251 -0.4030975171562972 -0.1946060569702309
N 2.2717966879053519 1.3753192387524806 -0.1862547293212467 0.1283355164991325
N 0.3322422259063741 2.2027334992627465 0.3794332762381694 0.1235072004109040
