21
s                      x[A]                      y[A]                      z[A]                      q[e]
N       -1.9521533495890571        1.4644611906587994       -0.1921082127782758        0.0707249461841811
O       -1.6313008578040564       -0.0056206632233029        0.2977936791310222       -0.3496602100029151
N       -1.4890002282716661        0.1482500739549565       -0.2078270433251731        0.9824851761690530
N       -3.0511181940908023       -0.6173835637620362        0.0915514488118938        0.1071394941056757
O       -1.5406367697242258        0.0185628406155030       -0.3353947979080317       -0.8194842575378962
N       -0.5287314681561319       -0.5915914004522462       -0.0783779137782993        0.3116552922920345
N       -0.7726609485193078       -1.9660660989666718        0.3221904308052908        0.0918298459672651
N       -1.3078153312034124       -0.8988895535682103        0.0373125131142377        0.5593901217632046
O       -0.9997542097138378       -0.7259263748575738        0.0060778971749940       -0.9963138680841535
N        0.7751504046665155        0.8667657840501328       -0.0964316306090820        0.9989733053171830
O        0.7524106535134004        0.9645904946728823       -0.1136066692858409       -0.8354521971080898
N        0.6140189667514245        1.7297303104760289       -0.0329415095600318        0.2899344186932475
O        0.6013383623234964        1.3427144362982093       -0.0158817587196165       -0.8678253524624289
N        0.5031391828510444       -0.4072429502208068       -0.0663248366052737        0.9219570073558310
O        0.6235905124660879       -0.2414880437068017       -0.2363636722091295       -0.9704818863270434
O        0.7804710618780875       -0.2563797323747263        0.4199800964779013       -0.3320651923316272
N        0.6223218278371526        0.3373670331600604       -0.0174679458027683        0.9769593393400061
O        1.4665757914492010       -0.6152150253081283       -0.5286740699779385       -0.1970026432733326
O        1.5013450463852411       -0.5605549985383186        0.4740522634657078       -0.1946060569702309
N        2.7708241895045198       -0.1248900475658556       -0.0317741420866282        0.1283355164991325
N        1.6025864336613049       -1.9669511931075516        0.0098677039891036        0.1235072004109040

        RMSE         8.107036128E+00 kcal/mol

Coordinates in bohr
s                   x[bohr]                   y[bohr]                   z[bohr]                      q[e]
+       -3.6890351856184500        2.7674305717070107       -0.3630319086021191        0.0707249461841811
-       -3.0827118494740908       -0.0106215141354755        0.5627484954500983       -0.3496602100029151
+       -2.8138026321776373        0.2801520378537364       -0.3927361933482356        0.9824851761690530
+       -5.7657777632330980       -1.1666858498693786        0.1730071646433508        0.1071394941056757
-       -2.9113815535888254        0.0350786848738257       -0.6338043119494561       -0.8194842575378962
+       -0.9991576687263162       -1.1179457250307938       -0.1481127913257332        0.3116552922920345
+       -1.4601175805379618       -3.7153264715942758        0.6088516744652707        0.0918298459672651
+       -2.4714127986493710       -1.6986550732789709        0.0705104308384628        0.5593901217632046
-       -1.8892616491326837       -1.3718020357272500        0.0114855610794325       -0.9963138680841535
+        1.4648219708575221        1.6379499467724741       -0.1822293716824810        0.9989733053171830
-        1.4218500690170706        1.8228118581516357       -0.2146854909757010       -0.8354521971080898
+        1.1603276829967886        3.2687165577028323       -0.0622504312276109        0.2899344186932475
-        1.1363648135227364        2.5373625493021068       -0.0300121743706770       -0.8678253524624289
+        0.9507952585751219       -0.7695776424407804       -0.1253357764997074        0.9219570073558310
-        1.1784152829948018       -0.4563462651784451       -0.4466626064827424       -0.9704818863270434
-        1.4748765557948351       -0.4844874783064064        0.7936473604865892       -0.3320651923316272
+        1.1760178165065360        0.6375312964307636       -0.0330096335415727        0.9769593393400061
-        2.7714265880655464       -1.1625879060989690       -0.9990492018894305       -0.1970026432733326
-        2.8371309574808850       -1.0592954254938354        0.8958289471035655       -0.1946060569702309
+        5.2360988599572034       -0.2360079856948682       -0.0600444264151104        0.1283355164991325
+        3.0284494519940566       -3.7169990571157858        0.0186472580264935        0.1235072004109040
