21
s                      x[A]                      y[A]                      z[A]                      q[e]
N       -1.8225608667442954        1.1541361682699758       -1.2965474783284352        0.0707249461841811
O       -1.6883826026023090        0.2903939390397334        0.0470097153749548       -0.3496602100029151
N       -1.4797792229468070        0.1293400936493761       -0.4327029869620812        0.9824851761690530
N       -3.1313524623446463       -0.2516374000380578        0.0927908549253466        0.1071394941056757
O       -1.5267794393366996       -0.0498804123983053       -0.4705134720826470       -0.8194842575378962
N       -0.6180663162324243       -0.1769645818933822        0.4457890980808921        0.3116552922920345
N       -0.9943904659934625       -1.3086294792801834        1.2874300319195551        0.0918298459672651
N       -1.4272913871293957       -0.4004364878572408        0.5458050334132424        0.5593901217632046
O       -1.0818359789383307       -0.3521046431620431        0.4816325257804722       -0.9963138680841535
N        1.2179102631884888       -0.5812828988240627       -0.0806440587463652        0.9989733053171830
O        1.2572060239299028       -0.6752882921231328       -0.0798815215871636       -0.8354521971080898
N        1.5379182303097716       -1.3743549678944158       -0.2878149772023588        0.2899344186932475
O        1.3145408157691143       -1.0646577239742869       -0.2229020715982757       -0.8678253524624289
N        0.3008327932914032        0.3150579016095038        0.1958457116642263        0.9219570073558310
O        0.5330610379831582        0.2394420922647896        0.3019056437665228       -0.9704818863270434
O        0.4683589207621722        0.3769556625785819       -0.3557599748240823       -0.3320651923316272
N        0.7838541995360585       -0.2227123839519468       -0.0244472003230178        0.9769593393400061
O        1.0858772200233278        0.9672352382022037        0.5749985408772770       -0.1970026432733326
O        0.8784267762495335        1.0669805841280251       -0.4030975171562972       -0.1946060569702309
N        2.2717966879053519        1.3753192387524806       -0.1862547293212467        0.1283355164991325
N        0.3322422259063741        2.2027334992627465        0.3794332762381694        0.1235072004109040

        RMSE         1.552682699E+00 kcal/mol

Coordinates in bohr
s                   x[bohr]                   y[bohr]                   z[bohr]                      q[e]
+       -3.4441408851237583        2.1810012695155652       -2.4501196426937111        0.0707249461841811
-       -3.1905807139060656        0.5487650132779921        0.0888354872943886       -0.3496602100029151
+       -2.7963774575122651        0.2444173540383881       -0.8176901390258828        0.9824851761690530
+       -5.9173985561093785       -0.4755257689942005        0.1753493027559946        0.1071394941056757
-       -2.8851949943264166       -0.0942603184576881       -0.8891416005744505       -0.8194842575378962
+       -1.1679760650498918       -0.3344145936846457        0.8424193050877440        0.3116552922920345
+       -1.8791256424940301       -2.4729513155400360        2.4328901660173887        0.0918298459672651
+       -2.6971898228993623       -0.7567152926904043        1.0314220310473869        0.5593901217632046
-       -2.0443737128600081       -0.6653813430783189        0.9101535668375993       -0.9963138680841535
+        2.3015168428105066       -1.0984654801896907       -0.1523951846759622        0.9989733053171830
-        2.3757750685032968       -1.2761099278408818       -0.1509541982845865       -0.8354521971080898
+        2.9062442586342443       -2.5971544884828321       -0.5438914817173467        0.2899344186932475
-        2.4841221225395409       -2.0119115156646790       -0.4212238681179329       -0.8678253524624289
+        0.5684915888772192        0.5953731477034012        0.3700947578907693        0.9219570073558310
-        1.0073393699404416        0.4524799772870566        0.5705189824487624       -0.9704818863270434
-        0.8850700886555096        0.7123429637140120       -0.6722889188172875       -0.3320651923316272
+        1.4812697594131232       -0.4208654104169887       -0.0461985131447078        0.9769593393400061
-        2.0520105517176006        1.8278096990941299        1.0865897647959213       -0.1970026432733326
-        1.6599860283804415        2.0163010851829832       -0.7617439092774400       -0.1946060569702309
+        4.2930735528633077        2.5989766963153351       -0.3519704279884361        0.1283355164991325
+        0.6278468142755368        4.1625630409779539        0.7170249749753257        0.1235072004109040
