21
s                      x[A]                      y[A]                      z[A]                      q[e]
N 1.9320451403757299 1.3922907599330694 0.5231780796065293 0.0707249461841811
O 1.6698135372740643 -0.0113074187433760 -0.1881871569944907 -0.3496602100029151
N 1.4612117636269022 0.1005536031224716 0.3053210999988513 0.9824851761690530
N 3.0484975450168883 -0.6580442098229144 0.0893884299386697 0.1071394941056757
O 1.4927289609710113 -0.0414128203276873 0.4261964233617229 -0.8194842575378962
N 0.5134744469614541 -0.6254253162112844 -0.0355551862686806 0.3116552922920345
N 0.7956167667977205 -1.9417914706813399 -0.5120021978395191 0.0918298459672651
N 1.2774428304033911 -0.9563824625816071 -0.1825510086965905 0.5593901217632046
O 0.9760027852007017 -0.7743924245901782 -0.1400416895294682 -0.9963138680841535
N -0.7416996664384398 0.8810119489560853 0.0190958519902778 0.9989733053171830
O -0.7147898016649149 0.9783821310234686 0.0323871674448762 -0.8354521971080898
N -0.5566015222978300 1.7360055793605604 -0.0758397273148684 0.2899344186932475
O -0.5577062026285156 1.3487599144364004 -0.0837840467551642 -0.8678253524624289
N -0.5177482664542782 -0.4110861197819131 -0.0013098623720691 0.9219570073558310
O -0.6239094463018133 -0.2376572917931166 0.1705873830067478 -0.9704818863270434
O -0.8135885993023808 -0.2608907117491826 -0.4767938331121787 -0.3320651923316272
N -0.6138378787546805 0.3360475695411307 -0.0612561940506999 0.9769593393400061
O -1.4127920699002525 -0.5619485649332200 0.6170931552280026 -0.1970026432733326
O -1.5757001204583136 -0.5461936539763654 -0.3743045799120066 -0.1946060569702309
N -2.7472466969614198 -0.0378751128143259 0.3007347773048872 0.1283355164991325
N -1.6658152618835880 -1.9297956682175457 0.1620778177852413 0.1235072004109040
