25
s                      x[A]                      y[A]                      z[A]                      q[e]
N 0.0651438639059178 -0.0051618282120981 0.2430992494874150 0.1158659338886357
O -0.1739578942229491 0.4415492799996639 0.3081186010769957 -0.2341991647481463
N -0.0843123888452360 -0.0047654777357351 -0.3912271830449917 0.0569852111266852
N -0.5105698510083071 -0.0355453960854882 0.1394735753841287 0.3189271149812888
O -0.2366126600087223 -0.3368561201969069 0.2739744933045760 -0.2877498234141676
N 0.0390925210744771 0.1189642653468614 -0.5526569276295535 0.5692545008206258
O -0.1592434437665843 -0.4978994384887532 0.0426422615694375 -0.2058946535748549
O -0.0745333133353066 0.1614102231646194 -0.2706954349879584 -0.9992971180892700
N -0.1838912135079479 -0.0164226271950077 0.2431291693790036 0.6691943173322236
N 0.0178279347071325 -0.0243403378242415 0.3810790056828327 0.0628076875181509
N 0.0576777703920831 0.0025470734869917 0.2915926066972915 0.7576134719858190
O 0.0334895472786200 -0.0726210829281961 -0.0585188078536915 -0.9235083265987739
N 0.1059983231970775 -0.0116014352962212 -0.4779110896150029 0.9955526175656415
O 0.0663897159300420 0.0530456356802609 0.0938928288578428 -0.9936641819349231
O -0.0431586034651394 0.1147833056795301 -0.1218011681460757 -0.9934394819660318
N -0.0273883645707179 -0.0532186838530649 0.2958761865461614 0.8475065253219278
N -0.0793593863726549 0.0206435250776171 -0.4033426586941170 0.9207393412409772
O 0.1552636565959245 -0.2556076044851984 -0.2258119632370857 -0.6738758902636315
N -0.0652571030035934 0.0233662038880716 0.2197320843127867 0.1207489421105395
N 0.2624469127368840 0.0746892599555387 -0.4896005962622861 0.4308753055723465
O 0.3508598129657389 -0.2107129676581838 -0.1262709335183536 -0.7095764258838037
N 0.4481939719253714 -0.0073071572021899 0.1016158177189998 0.9977500474782615
O 0.3065127188691280 0.1252600414735694 -0.0367293567264679 -0.9963537733476465
O -0.0338964327282589 -0.3688024443988884 -0.1389236150960442 -0.1586318904925156
N -0.0297258727887861 -0.2022429524959282 -0.0932553602887328 0.3123697133706422
