23
s                      x[A]                      y[A]                      z[A]                      q[e]
N 1.5173861917499416 -0.0518349597830481 -1.4854809564552476 0.2856065124296451
O 1.4995064788422192 -0.0915031185496681 -1.2715976919549821 -0.2980193526493612
N 2.6529544790394204 -0.1692232819181692 0.1445240582671427 0.9235469647741466
O 2.5694594525742533 -0.1430045870616812 0.1031762588002455 -0.9987019282037162
O 1.4436769182850364 -0.1748171519147149 -0.0359218069695023 -0.9994297377915048
N 1.6406404028169053 -0.2235668589238913 0.3147642305252553 0.3910255639585828
N 1.9482735200905053 -0.1265482721172115 -0.2673408358629780 0.3788084070601841
N 1.1154935274364697 -0.1659772006214112 -0.5067582900613160 0.3521750120262308
N 1.0344525829515585 -0.4169755526193721 0.7487193006724303 0.5091785922378865
N 0.4054509351241100 -0.6777262676880168 0.5613386516333254 0.9946620798872232
O 0.6059671281071746 -0.7049468000277669 0.5306452685948316 -0.5088390984708862
O 0.7417762874685203 -0.4834146466846245 0.5995131599666765 -0.9513197152299744
N 0.8841907745928648 -0.4464146407627448 1.8881455147016113 0.0534150746794947
N 0.4357282417929129 -0.4839902914495284 1.9280510675166767 0.0449830180293293
O 0.4859767943457015 -0.6902027428175791 0.8833044498985021 -0.1594766348608674
O -1.0724090861550166 -1.2600836974197487 -0.1666273742577757 -0.2085098172073890
N -1.2257758830066825 -1.1514213955853712 0.1034368205301631 0.7433887315217406
O -1.2498201805742231 -1.1493623215047952 0.2625018057986996 -0.4563903046399361
N -0.5412385637543818 0.2104158827981306 0.0507535060914830 0.2740207269363132
N -1.2645066661471773 0.3279581094163532 -0.1364369311342095 0.2947455612059413
O -1.2844938893075808 1.0595763266273797 -0.2768229913741547 -0.8294346811293033
N -1.5253652850010537 0.9864337401942487 -0.3584753337306537 0.8271270632704910
O -1.7501183967771716 0.7327530767590159 -0.3985343166390583 -0.6625620378342709
