23
s                      x[A]                      y[A]                      z[A]                      q[e]
N -2.2760403408910022 -0.3048202911600966 -0.6556370665939290 0.2856065124296451
O -2.1095675247521593 -0.2005271491488432 -0.5905895508556485 -0.2980193526493612
N -1.9595048393706374 1.6165772562849354 -0.2354713569644494 0.9235469647741466
O -1.9326016679040081 1.5205857043953692 -0.2242186916428491 -0.9987019282037162
O -1.2656368245887135 0.5895373329602356 -0.1005558773760103 -0.9994297377915048
N -1.1758397896947610 0.9862005702319241 -0.0254105261452908 0.3910255639585828
N -1.7710203312719908 0.8146686921509873 -0.2557078814669040 0.3788084070601841
N -1.3451925097701567 0.0546986305745587 -0.2391626393233713 0.3521750120262308
N -0.6134910059048435 0.7633063557176576 0.1384668770061413 0.5091785922378865
N -0.6050140572813540 0.0669845579999400 0.0506112616812205 0.9946620798872232
O -0.7004187188659708 0.1983410964076999 0.1046541641862672 -0.5088390984708862
O -0.5519260719361200 0.4171665702952347 0.1385863316419121 -0.9513197152299744
N 0.0568809154893246 1.2826288762338462 1.2104724720188309 0.0534150746794947
N 0.8061598412859764 1.0870569438670841 0.6927772360357209 0.0449830180293293
O -0.5870808852786866 0.2377474530107329 -0.2460609391913663 -0.1594766348608674
O -0.6430859286679489 -1.6652174896909178 0.2375388667705554 -0.2085098172073890
N -0.4657716098627092 -1.6645550851939590 -0.0388433573157757 0.7433887315217406
O -0.4275450009145291 -1.6412884318772394 -0.1969644319013825 -0.4563903046399361
N 0.5231142428294189 -0.6693977860292639 0.5305364109474180 0.2740207269363132
N 1.3152913795764234 -0.1217519987052634 -0.2206441841648810 0.2947455612059413
O 1.7703715242523488 0.4687821710776138 -0.3144276023673775 -0.8294346811293033
N 1.9404108590842732 0.2842141050458041 -0.3062923934884467 0.8271270632704910
O 2.0064851919557944 -0.0635524452899788 -0.2744671321045097 -0.6625620378342709
