25
s                      x[A]                      y[A]                      z[A]                      q[e]
N 0.0670180380304448 -0.0028546823513153 0.2416796649409390 0.1158659338886357
O -0.1689578260697997 0.4430172435205035 0.3020850526745787 -0.2341991647481463
N -0.0817692172931655 -0.0053587611905749 -0.3914254492186480 0.0569852111266852
N -0.5170027466919319 -0.0352357958802994 0.1463778572357280 0.3189271149812888
O -0.2333922940000187 -0.3376070774591667 0.2679798153325263 -0.2877498234141676
N 0.0299550232547728 0.1222213789172960 -0.5560535886208687 0.5692545008206258
O -0.1560740125665707 -0.5000867898176105 0.0441221809893316 -0.2058946535748549
O -0.0634133642585191 0.1587523966135050 -0.2691264289067984 -0.9992971180892700
N -0.1908564050696025 -0.0123997912420487 0.2401098093681092 0.6691943173322236
N 0.0171934360714659 -0.0218678044622399 0.3833251455571518 0.0628076875181509
N 0.0566208004365623 0.0053342664460632 0.2938231163030957 0.7576134719858190
O 0.0381063006746789 -0.0762185505085385 -0.0578560379114953 -0.9235083265987739
N 0.1044986738893240 -0.0086283577514070 -0.4763342231957999 0.9955526175656415
O 0.0714325244941094 0.0504973342540835 0.0954755024057440 -0.9936641819349231
O -0.0396971701496647 0.1128977126604847 -0.1276410663092846 -0.9934394819660318
N -0.0297178146132387 -0.0504469827278617 0.2983646807246652 0.8475065253219278
N -0.0815358617870863 0.0227232826816919 -0.3992515051496626 0.9207393412409772
O 0.1572913329123322 -0.2579742361327925 -0.2303000928400352 -0.6738758902636315
N -0.0644671938574335 0.0231415171732195 0.2205435240910413 0.1207489421105395
N 0.2652056436575446 0.0742069369679693 -0.4880599770439893 0.4308753055723465
O 0.3467377188981417 -0.2103194683492429 -0.1267205963499412 -0.7095764258838037
N 0.4509668895822539 -0.0084695937734457 0.1034184703559211 0.9977500474782615
O 0.3027131899750175 0.1264846027848608 -0.0368510790754550 -0.9963537733476465
O -0.0330485612027974 -0.3695563767398672 -0.1422647107437599 -0.1586318904925156
N -0.0321710543114969 -0.2025895212294332 -0.0906599661030903 0.3123697133706422
