21
s                      x[A]                      y[A]                      z[A]                      q[e]
N -1.9927179064447249 1.4113909801329396 0.0554367342720231 0.0707249461841811
O -1.6056815879149462 -0.1098108729538205 0.3326190766153918 -0.3496602100029151
N -1.5017273585460740 0.1276494342328058 -0.1484310803963106 0.9824851761690530
N -3.0252610290611108 -0.7182019027974499 0.1328979706437367 0.1071394941056757
O -1.5597922934836896 0.0188945672232315 -0.2915188377778495 -0.8194842575378962
N -0.4777365618929612 -0.6543287651664726 -0.1551049754509893 0.3116552922920345
N -0.7090679724434099 -2.0215148678310002 -0.0192324450199656 0.0918298459672651
N -1.2314037538437166 -1.0199663919584259 -0.0171522236308859 0.5593901217632046
O -0.9373906772034589 -0.8246716558984273 -0.0531350921163273 -0.9963138680841535
N 0.7064824457677545 0.8977192937432601 -0.1425102046810821 0.9989733053171830
O 0.6765402400368736 0.9939696666875242 -0.1574004308414419 -0.8354521971080898
N 0.4830052845412653 1.7444219550057871 -0.0593116879001884 0.2899344186932475
O 0.4986481543547332 1.3570022441230625 -0.0508352556909086 -0.8678253524624289
N 0.5356520611892939 -0.3938942170882834 -0.1329316507956665 0.9219570073558310
O 0.6434752957835980 -0.2162240820255688 -0.2984498161733269 -0.9704818863270434
O 0.7985312948084757 -0.2324775276659691 0.3570829919198315 -0.3320651923316272
N 0.5967401920518980 0.3559196563126610 -0.0689129904924493 0.9769593393400061
O 1.5494142616924531 -0.4899095142645103 -0.5226683534506453 -0.1970026432733326
O 1.4976486116128362 -0.5340895630577894 0.4792820182579060 -0.1946060569702309
N 2.7690402984949904 0.0344660382931934 0.0886942829635869 0.1283355164991325
N 1.7399587684776838 -1.8754328795164614 -0.1042002568000302 0.1235072004109040
