21
s                      x[A]                      y[A]                      z[A]                      q[e]
N 1.5007461360039001 0.0381791553339177 0.0793611995843488 0.0707249461841811
O 0.5118197377393097 -0.2510703943776221 0.2420003965390305 -0.3496602100029151
N 0.8003748801025500 0.2128660997125074 0.2319012816809827 0.9824851761690530
N -0.7237382934491687 0.1140601672802088 0.0355528281761033 0.1071394941056757
O 0.6870336320551969 0.3626149700814090 0.2118438293411625 -0.8194842575378962
N -0.0588906343594792 -0.0955910850577177 -0.5973965087560660 0.3116552922920345
N 1.0392280768994004 0.0143542822334261 -0.2261997423028065 0.0918298459672651
N -0.0518781125288971 0.0623371525708766 -0.5794783746086433 0.5593901217632046
O 0.2684683372103605 0.0629201703033536 -0.7319785458296360 -0.9963138680841535
N -1.2135537987910454 -0.0258925387442471 -0.3866804459940323 0.9989733053171830
O -1.1826941425979642 -0.0423239517171084 -0.2909721438546300 -0.8354521971080898
N -0.9713800867258330 0.0454572964102554 0.4559526447289806 0.2899344186932475
O -0.9933995807166033 0.0550244757454120 0.0688684256972396 -0.8678253524624289
N -0.1428851589389988 -0.0236582948927467 0.3523322153018221 0.9219570073558310
O -0.3527864698162941 -0.1838049351751124 0.3226121348875350 -0.9704818863270434
O -0.3904875306528637 0.4785943614850120 0.2049873007271429 -0.3320651923316272
N -0.8466267844787290 0.0426598340238322 0.6176633736747790 0.9769593393400061
O -0.2521851405629089 0.5016985525687178 0.6672440139035517 -0.1970026432733326
O -0.1793334210613449 -0.4944525820962145 0.5627851680460578 -0.1946060569702309
N -0.4506325672485829 -0.0890716466895628 0.3953228297564619 0.1283355164991325
N -0.9685616775283687 -0.1076367712420786 0.0935291099019527 0.1235072004109040
