21
s                      x[A]                      y[A]                      z[A]                      q[e]
N 1.9247938371106708 1.3933182772951347 0.5132578374938822 0.0707249461841811
O 1.6645800996857703 -0.0123019504262894 -0.1905322949039059 -0.3496602100029151
N 1.4548987782785283 0.1027795952698917 0.3017765199626481 0.9824851761690530
N 3.0407720134177163 -0.6570015502341285 0.0971049918770979 0.1071394941056757
O 1.4859871310976853 -0.0384736143377353 0.4235947780698450 -0.8194842575378962
N 0.5112682102866875 -0.6235126542374162 -0.0355062736247048 0.3116552922920345
N 0.7939004442377039 -1.9398739784333936 -0.5028606179783899 0.0918298459672651
N 1.2753989114674913 -0.9545929903112411 -0.1813766887948480 0.5593901217632046
O 0.9739591982973996 -0.7725232426868043 -0.1392077035108626 -0.9963138680841535
N -0.7418777065509544 0.8777456227234492 0.0191366177794761 0.9989733053171830
O -0.7150917885372952 0.9751126550908746 0.0326986179492394 -0.8354521971080898
N -0.5573718587004071 1.7331149151302758 -0.0735411084060651 0.2899344186932475
O -0.5580891769150116 1.3458862191487699 -0.0823137930349913 -0.8678253524624289
N -0.5166525652217777 -0.4098922766991404 -0.0035006110912480 0.9219570073558310
O -0.6233813161119651 -0.2369314393015680 0.1685166552315385 -0.9704818863270434
O -0.8115208784877476 -0.2589624605698786 -0.4793556709565863 -0.3320651923316272
N -0.6133128499999587 0.3372763278558533 -0.0620786932480806 0.9769593393400061
O -1.4043144890565546 -0.5633813728752293 0.6159247411248142 -0.1970026432733326
O -1.5705396733254382 -0.5445445654835779 -0.3748684170059272 -0.1946060569702309
N -2.7393018535857392 -0.0420098808613801 0.3055488227117217 0.1283355164991325
N -1.6548689997787676 -1.9280306426081166 0.1567920822140996 0.1235072004109040
