21
s                      x[A]                      y[A]                      z[A]                      q[e]
N 0.0271984565190999 -0.0450243346213318 0.3788074081983309 0.0707249461841811
O 0.1028048081611537 0.2923703842674946 0.3139069444516581 -0.3496602100029151
N 0.3753596305454910 -0.1822764355217214 0.3124058910728139 0.9824851761690530
N 0.0336457010611656 -0.0110070913387004 -0.1884913504090541 0.1071394941056757
O 0.2563743936134169 -0.3289978021751243 0.3210080346028975 -0.8194842575378962
N 0.1011331318646140 0.1261682519451062 0.2906848283010076 0.3116552922920345
N 0.0297640749502886 -0.0163093213716106 0.2435969480873002 0.0918298459672651
N 0.0909411480529778 0.0397428669405845 -0.5502758555222835 0.5593901217632046
O 0.0474153226095593 0.0585278311054002 -0.1987845403567877 -0.9963138680841535
N 0.2263186640735180 0.0842525704631264 -0.4262998675833638 0.9989733053171830
O 0.2005791463316106 0.0998850449867651 -0.3289609996468594 -0.8354521971080898
N 0.0344599067506492 0.0064671299408491 0.4289356775711898 0.2899344186932475
O 0.0348283587134311 -0.0024864713939498 0.0417106334445920 -0.8678253524624289
N 0.0011218927728884 0.0786092634955531 -0.3512905158974373 0.9219570073558310
O 0.1206948398162113 0.2419184635780348 -0.1782909986819020 -0.9704818863270434
O 0.2581489303297529 -0.4185797386499195 -0.1999453221352733 -0.3320651923316272
N 0.0923177418099373 0.0130189249724064 0.3959823597016031 0.9769593393400061
O 0.1996733732285258 -0.5144377957588976 -0.0956064304444764 -0.1970026432733326
O 0.2308439914601101 0.4896804246577970 -0.0748287649621866 -0.1946060569702309
N 0.0218175340267480 -0.0000566462349801 0.1847041146048682 0.1283355164991325
N 0.0371600737975821 0.0045553282255523 -0.1492128205201027 0.1235072004109040
