23
s                      x[A]                      y[A]                      z[A]                      q[e]
N -1.0039256175883153 -1.6160352152988302 0.1918510923311881 0.2856065124296451
O -1.0412842121335841 -1.3833201105961490 0.1346512684933340 -0.2980193526493612
N -2.5592941651009595 -0.3827514163048255 0.0178639936017091 0.9235469647741466
O -2.4637543210098349 -0.3909529759190049 0.0352759784794955 -0.9987019282037162
O -1.3457782290816696 -0.1995235393330461 0.0333335461888995 -0.9994297377915048
N -1.6491814504544924 0.0714027576788434 -0.0317309748906496 0.3910255639585828
N -1.7782111960739286 -0.5769958128577912 0.0797267419906787 0.3788084070601841
N -0.9143603832929049 -0.5700455272755318 0.0575697384002421 0.3521750120262308
N -1.1737417877234284 0.8000397735628195 -0.0651951192642869 0.5091785922378865
N -0.5109030835590275 0.9933668313096788 0.0566056246166629 0.9946620798872232
O -0.6532133751264440 1.0281295815331124 -0.0383561338526207 -0.5088390984708862
O -0.8200298638630497 0.8186868355619816 -0.0564549067213039 -0.9513197152299744
N -1.3455547644235497 1.8089884383978245 -0.2149491865791141 0.0534150746794947
N -0.9259638361559783 1.9669477501158876 -0.2648351112998151 0.0449830180293293
O -0.7037621907684367 0.9842414682019757 0.3272401591206099 -0.1594766348608674
O 1.1847276754124558 1.4356146426544416 0.0280997030081381 -0.2085098172073890
N 1.1831260961848311 1.3183844571990251 0.3234083651968758 0.7433887315217406
O 1.1504408260653312 1.3084134442018083 0.4852432117413116 -0.4563903046399361
N 0.4811866481579971 0.0388098436240831 -0.0918875356924895 0.2740207269363132
N 1.2032477004178053 -0.1539226690456613 0.0346076964200228 0.2947455612059413
O 1.2435210035170923 -0.8658879163849005 -0.1490278088793895 -0.8294346811293033
N 1.4743736014896207 -0.8193691658461368 -0.1204568740015434 0.8271270632704910
O 1.7371142444857446 -0.5949268061733421 -0.0321120322211224 -0.6625620378342709
