21
s                      x[A]                      y[A]                      z[A]                      q[e]
N        2.1706346706788313        1.6473260314365197       -0.5852430222251499        0.0690680479201058
O        1.9045144598563981       -0.2430718111800859       -0.3686278183427427       -0.3117950550350966
N        2.0416254660293407       -0.2314434084626480       -0.0115614181504394        0.5776243102962968
N        3.3798081698147140       -0.4220208227548714        0.0364297778599802        0.0604184539076988
O        1.9179597139702871       -0.0827197088941864        0.2843608092948429       -0.3968494342195521
O        0.5554311106915031       -0.9770222511900495        0.1568137166282877       -0.9828651838991298
N        0.3350130153070109       -0.9612974042457847        0.1336240675262312        0.7759263489545838
N        1.0840078356858032       -1.2105234223954096        0.3087564825611149        0.9970342621901004
O        1.0987987295234223       -1.1419625480715112        0.5805578535225416       -0.3970377457969525
O        1.1185458199618656       -1.3005409735525464        0.0521200978450175       -0.3893757401670396
N       -0.5340305708225443        1.7931478363166917        0.0292982649667210        0.1691966627363242
O       -0.5282727706946755        1.3431377125716621        0.0440911494725794       -0.6800109224217911
O       -0.6818368655889788       -0.3702435710888870       -0.3503367561977574       -0.9821368279659007
N       -0.6430634199116123       -0.5465836044108964       -0.2310868012430409        0.8921713087406896
O       -0.9260787727084010       -0.3158350765439977        0.3044779165220612       -0.3335771210350215
N       -0.6211076132165918        0.2717170822933129       -0.0523796805895511        0.9988617281482304
N       -2.9587246358525880        0.0664735256112764       -0.1844410537248614        0.0655379221577991
N       -1.6945052060870434       -0.3724741951762515       -0.0788084386588556        0.9908754307264420
O       -1.5549576839024886       -0.4359772348872827       -0.4231475309598163       -0.6595771554465193
O       -1.6969742195564794       -0.4545725083649252        0.2845534495263984       -0.5578053818499882
N       -1.6390631620455243       -2.0695712520819929       -0.1747117751820769        0.0943160920587207

        RMSE         7.874462681E+00 kcal/mol

Coordinates in bohr
s                   x[bohr]                   y[bohr]                   z[bohr]                      q[e]
+        4.1019050460063369        3.1129950387523548       -1.1059490288407621        0.0690680479201058
-        3.5990107311028394       -0.4593391519493605       -0.6966056188928033       -0.3117950550350966
+        3.8581129815556587       -0.4373646555368733       -0.0218479139262277        0.5776243102962968
+        6.3869117975346725       -0.7975037742470880        0.0688423029666298        0.0604184539076988
-        3.6244185790652748       -0.1563175949876103        0.5373640503807958       -0.3968494342195521
-        1.0496126807657922       -1.8463044732274572        0.2963349771426159       -0.9828651838991298
+        0.6330828473940617       -1.8165888191380544        0.2525128913942601        0.7759263489545838
+        2.0484779272964588       -2.2875577367792270        0.5834651915002032        0.9970342621901004
-        2.0764286658002811       -2.1579964613851259        1.0970953431412660       -0.3970377457969525
-        2.1137452585035859       -2.4576662549506052        0.0984927105591478       -0.3893757401670396
+       -1.0091715214765191        3.3885583130958299        0.0553656967381985        0.1691966627363242
-       -0.9982908561497208        2.5381624255343374        0.0833201970597994       -0.6800109224217911
-       -1.2884849382037709       -0.6996589490694723       -0.6620405208950518       -0.9821368279659007
+       -1.2152137449332314       -1.0328933170021775       -0.4366907655574549        0.8921713087406896
-       -1.7500352510189874       -0.5968417954811653        0.5753798734767067       -0.3335771210350215
+       -1.1737232834161493        0.5134708691428480       -0.0989832508532110        0.9988617281482304
+       -5.5911792424063345        0.1256167579989191       -0.3485430778308414        0.0655379221577991
+       -3.2021507576669870       -0.7038742176834406       -0.1489263654401801        0.9908754307264420
-       -2.9384441592519281       -0.8238775708713622       -0.7996329441777400       -0.6595771554465193
-       -3.2068165169242877       -0.8590175449720963        0.5377280876591805       -0.5578053818499882
+       -3.0973804785929451       -3.9109228635558106       -0.3301574059866853        0.0943160920587207
