25
s                      x[A]                      y[A]                      z[A]                      q[e]
N -1.8702352111818752 1.2374008693189193 0.5653506338483061 0.1158659338886357
O -1.7170845870861644 -0.4405885825595247 0.4617879284024091 -0.2341991647481463
N -3.2897772207053251 -0.6310812977328173 0.1142285699269597 0.0569852111266852
N -2.0951416145261947 -0.4987364479684237 0.0038602047204921 0.3189271149812888
O -1.8793168002484144 -0.2523702371275055 -0.2721780607963935 -0.2877498234141676
N -1.2919275655278184 -0.9060723235899699 -0.3413323396360090 0.5692545008206258
O -0.8846106652167293 -0.4918098555368662 0.3000521912639043 -0.2058946535748549
O -1.0759986592321609 -0.6892229773025430 -0.3648151321069474 -0.9992971180892700
N -0.6651809695930312 -0.3893195009044488 -0.1567138514022897 0.6691943173322236
N -0.8362675552557876 -2.0573924225004023 -0.6324582601567441 0.0628076875181509
N 0.5744804192966432 1.5983811209298060 -0.0901978167140212 0.7576134719858190
O 0.5451776768707516 1.2582250933717802 -0.0173553955810056 -0.9235083265987739
N 0.6191804585161631 0.8438590990364211 -0.0638262875106943 0.9955526175656415
O 0.5868347547408708 1.4041094715343614 -0.1341581634452738 -0.9936641819349231
O 0.4833133101115207 -0.1999349408065787 -0.1881496670680372 -0.9934394819660318
N 0.4862803931605954 0.2161175680305537 -0.0274585187239871 0.8475065253219278
N 0.4403076545058984 -0.4770588787994431 -0.0958647004009704 0.9207393412409772
O 0.6502423536245144 -0.3021038202520073 0.1883135835293046 -0.6738758902636315
N 2.8146254803719524 -0.1003649656890013 0.3205865590157054 0.1207489421105395
N 1.1141981211992746 -0.7233122903284906 0.1284391304597305 0.4308753055723465
O 1.4184380598791573 -0.4743190967034708 -0.1138083410932870 -0.7095764258838037
N 1.5319230760147249 -0.2709054224377323 0.0967964513970974 0.9977500474782615
O 1.4628170321275635 -0.4566036597193355 0.2230583138298626 -0.9963537733476465
O 1.8026906865449592 -1.9279922492116510 -0.1656961450729488 -0.1586318904925156
N 1.7680483327146024 -1.8796750125365207 -0.0045683524210139 0.3123697133706422
