25
s                      x[A]                      y[A]                      z[A]                      q[e]
N 0.0667049577435222 -0.0094847001506839 0.2398365718795551 0.1158659338886357
O -0.1748601871977666 0.4351015938748330 0.3110233863663052 -0.2341991647481463
N -0.0874074708810845 -0.0051965420114579 -0.3902158848380309 0.0569852111266852
N -0.5027229681581376 -0.0328008814653091 0.1390368729520115 0.3189271149812888
O -0.2334695353908626 -0.3367450697061863 0.2753978047079704 -0.2877498234141676
N 0.0355422671510534 0.1152799626114376 -0.5438219117064743 0.5692545008206258
O -0.1571839791545655 -0.4921642625064382 0.0416374579769168 -0.2058946535748549
O -0.0802065559915678 0.1553568179127177 -0.2624033111985924 -0.9992971180892700
N -0.1856754457604902 -0.0189873861977552 0.2479885226810357 0.6691943173322236
N 0.0201284976989960 -0.0267079072561214 0.3814442727373754 0.0628076875181509
N 0.0448184685514319 0.0026901244247575 0.2692620443682460 0.7576134719858190
O 0.0233293044572502 -0.0688403837421615 -0.0717546624690728 -0.9235083265987739
N 0.0945324107162629 -0.0116587832384413 -0.4852707020279161 0.9955526175656415
O 0.0539967295564420 0.0496209653702682 0.0755099575642632 -0.9936641819349231
O -0.0477745798067897 0.1112845357615524 -0.1174327662135742 -0.9934394819660318
N -0.0322668396637283 -0.0529200573195599 0.2969661966885346 0.8475065253219278
N -0.0814429670286887 0.0185157889004139 -0.3956845906517515 0.9207393412409772
O 0.1520065106097427 -0.2479433121197961 -0.2226526966646558 -0.6738758902636315
N -0.0660076045908842 0.0215410440313494 0.2165136331099296 0.1207489421105395
N 0.2671592774554834 0.0729101387306746 -0.4910593040214450 0.4308753055723465
O 0.3556054112811481 -0.2047416841114362 -0.1328273471595522 -0.7095764258838037
N 0.4512607953331230 -0.0073541575073251 0.0918915043604668 0.9977500474782615
O 0.3124423314028931 0.1216504328164517 -0.0469925778219971 -0.9963537733476465
O -0.0314655338324820 -0.3648377060177252 -0.1297224559406674 -0.1586318904925156
N -0.0236926862781813 -0.1987414653875170 -0.0867290228011437 0.3123697133706422
