25
s                      x[A]                      y[A]                      z[A]                      q[e]
N       -2.4282796344591233        0.1602205802760489       -0.1500252800209663        0.1158659338886357
O       -1.0769055616973848        1.1792138508028081       -0.4222035767648474       -0.2341991647481463
N       -1.9098433991169648        2.4840491330852315        0.0052705098596163        0.0569852111266852
N       -1.1950523464548137        1.5184161392584896        0.0633367888195990        0.3189271149812888
O       -1.1793622995395310        1.2006314643650304        0.3538484415189571       -0.2877498234141676
N       -0.3413742113087332        1.2122977782967914        0.2251849878203293        0.5692545008206258
O       -0.2895486911602554        0.6109993546653372       -0.4292757252910298       -0.2058946535748549
O       -0.3679615294545725        0.9107414906691234        0.2549244531128254       -0.9992971180892700
N       -0.2961970932097092        0.3932066656622394        0.0429592575527580        0.6691943173322236
N        0.8853325815552668        1.6521134351003319        0.3017799581117646        0.0628076875181509
N       -1.0002835465124575       -1.8784513043519189       -0.0878943621357504        0.7576134719858190
O       -0.7435659528535501       -1.6256351454645568       -0.1345584607246697       -0.9235083265987739
N       -0.3888476366792784       -1.4083221151087724       -0.0272746162814173        0.9955526175656415
O       -0.8483776044033747       -1.7564376574938563       -0.0216674153825988       -0.9936641819349231
O        0.2705230235044178       -0.6378109525113503        0.1908116427844973       -0.9934394819660318
N       -0.0302655107687567       -0.9064217310486662       -0.0173397277166063        0.8475065253219278
N        0.4754848605427652       -0.4325528714160065        0.1211198713725233        0.9207393412409772
O        0.5084914664969499       -0.7151201766793012       -0.1647911433547795       -0.6738758902636315
N        2.9084948892889670        0.1078107358898791       -0.1188306256134619        0.1207489421105395
N        1.1105522605797591       -0.8257895000125867        0.0690314318888270        0.4308753055723465
O        1.4753966817083639       -0.3560557750653971       -0.1719515299716672       -0.7095764258838037
N        1.6243094694217601       -0.1034289794543527       -0.0368952890385009        0.9977500474782615
O        1.5920290875957999       -0.2560026475531256        0.1457896557708613       -0.9963537733476465
O        1.8975983753658030       -1.7889779732280497        0.0353295526962306       -0.1586318904925156
N        1.8986521554397844       -1.7009836651576304        0.1865968071694652        0.3123697133706422

        RMSE         4.119990624E+00 kcal/mol

Coordinates in bohr
s                   x[bohr]                   y[bohr]                   z[bohr]                      q[e]
+       -4.5887834651545907        0.3027730163836628       -0.2835066911347464        0.1158659338886357
-       -2.0350565745903850        2.2283912213637960       -0.7978491292742718       -0.2341991647481463
+       -3.6090809668445103        4.6941725437120310        0.0099598201762000        0.0569852111266852
+       -2.2583216403853412        2.8693906476735798        0.1196891845350015        0.3189271149812888
-       -2.2286717488198726        2.2688646452572874        0.6686766443909097       -0.2877498234141676
+       -0.6451037656676742        2.2909107834819289        0.4255379545449791        0.5692545008206258
-       -0.5471677262776548        1.1546214431489610       -0.8112135531073168       -0.2058946535748549
-       -0.6953465153737258        1.7210519884558493        0.4817373990653553       -0.9992971180892700
+       -0.5597313853230550        0.7430529088060954        0.0811812313277183        0.6691943173322236
+        1.6730361090840111        3.1220419205289733        0.5702814709833706        0.0628076875181509
+       -1.8902619507102016       -3.5497585052341551       -0.1660962724083788        0.7576134719858190
-       -1.4051360071082974       -3.0720052048468096       -0.2542786386327994       -0.9235083265987739
+       -0.7348155378553660       -2.6613430939810740       -0.0515415549488317        0.9955526175656415
-       -1.6032013232943834       -3.3191861291040889       -0.0409454809196438       -0.9936641819349231
-        0.5112144250541405       -1.2052880200638409        0.3605817464113912       -0.9934394819660318
+       -0.0571935264000448       -1.7128888258453736       -0.0327673364743961        0.8475065253219278
+        0.8985361632273354       -0.8174064617566281        0.2288833852447490        0.9207393412409772
-        0.9609096088116501       -1.3513812807128933       -0.3114101288415930       -0.6738758902636315
+        5.4962587780499348        0.2037327642159384       -0.2245573377262571        0.1207489421105395
+        2.0986396205038207       -1.5605159923025425        0.1304505003180790        0.4308753055723465
-        2.7880956548380831       -0.6728479002612169       -0.3249412984999043       -0.7095764258838037
+        3.0695000401948436       -0.1954524446043312       -0.0697219916023730        0.9977500474782615
-        3.0084989593185720       -0.4837748912675139        0.2755025213317002       -0.9963537733476465
-        3.5859412255550884       -3.3806784138776407        0.0667631787308060       -0.1586318904925156
+        3.5879325812913780       -3.2143932710253846        0.3526168614351550        0.3123697133706422
