25
s                      x[A]                      y[A]                      z[A]                      q[e]
N -1.7733348100557054 1.0864590493629858 -1.0000407700393485 0.1158659338886357
O -1.8552004139007918 -0.0220791867644945 0.2956157793050213 -0.2341991647481463
N -3.3100389832849295 -0.5182622131240124 -0.1088291075468699 0.0569852111266852
N -2.1071891957384028 -0.4577558140764391 -0.0382312396962785 0.3189271149812888
O -1.7942499161404188 -0.4848746124561767 -0.3331276207907097 -0.2877498234141676
N -1.3806034163998600 -0.7742979686688158 0.2790458608067681 0.5692545008206258
O -0.7889241369846580 -0.4092449935995427 0.8128723748643557 -0.2058946535748549
O -1.1646685418078084 -0.5767130636602035 0.1962216425037519 -0.9992971180892700
N -0.6845123877995963 -0.3092600118547469 0.3132876215820996 0.6691943173322236
N -0.9708564600319947 -1.7985693190015080 1.0980102283336952 0.0628076875181509
N 0.7095089358032707 1.6131721150743523 0.1147620565172097 0.7576134719858190
O 0.6714252532523847 1.2603691960086079 0.1927184841402754 -0.9235083265987739
N 0.6994638989936761 0.8395874734874713 0.1107646153628457 0.9955526175656415
O 0.6959914406481672 1.4142037774788088 0.0639916743727455 -0.9936641819349231
O 0.4470151867049416 -0.2055460963635893 -0.0035915022488369 -0.9934394819660318
N 0.5238858599700811 0.2083426917504390 0.1659356531079994 0.8475065253219278
N 0.4060981870011855 -0.4847300472136573 0.0932552747889430 0.9207393412409772
O 0.6942030872505476 -0.3323821721927629 0.3308779122031701 -0.6738758902636315
N 2.7738871892358934 -0.2641701626605077 -0.4379444944190803 0.1207489421105395
N 1.0787020231241067 -0.7806690379723570 -0.0143319090607976 0.4308753055723465
O 1.2929630062028097 -0.5206254272235924 -0.3442949813261545 -0.7095764258838037
N 1.4998044433079050 -0.3428556839479583 -0.1715233323431948 0.9977500474782615
O 1.4695959852792215 -0.5411719950722956 -0.0394149445946929 -0.9963537733476465
O 1.4899572606748550 -1.9866695581736429 -0.6523484515583594 -0.1586318904925156
N 1.5278772029134529 -1.9523422718812324 -0.4849877441700156 0.3123697133706422
