25
s                      x[A]                      y[A]                      z[A]                      q[e]
N -1.8912871316996258 1.2747339321336022 0.3675370491261728 0.1158659338886357
O -1.7459811062844199 -0.3889129115101343 0.4503978218961700 -0.2341991647481463
N -3.2839692396761535 -0.6643235116378331 0.0918288968064476 0.0569852111266852
N -2.0769240983151671 -0.5429081311421313 0.0245789073244357 0.3189271149812888
O -1.8802780176201876 -0.2927805923790952 -0.3347878107424560 -0.2877498234141676
N -1.2966471513251168 -0.9116789309332045 -0.2763674395648376 0.5692545008206258
O -0.8514762531655927 -0.5212704625155150 0.3637946869969807 -0.2058946535748549
O -1.0473151553370670 -0.7498568444367981 -0.2828722897386912 -0.9992971180892700
N -0.6645384446473708 -0.4129181099025258 -0.1086596427689138 0.6691943173322236
N -0.7906925493122490 -2.1550354050980265 -0.3974816756400471 0.0628076875181509
N 0.5582290140479322 1.5983701304285614 -0.0581110416483249 0.7576134719858190
O 0.5184188585544293 1.2548503084289591 0.0074581480674318 -0.9235083265987739
N 0.6080463035604426 0.8256743177292704 -0.0400292710394223 0.9955526175656415
O 0.5554090165401957 1.3992085707771678 -0.1112295547941351 -0.9936641819349231
O 0.4831973559724372 -0.2010208681347027 -0.1587768067975989 -0.9934394819660318
N 0.4824544308467834 0.1988875135914404 -0.0054609677883560 0.8475065253219278
N 0.4455978615917343 -0.4786464491771804 -0.0766599850966704 0.9207393412409772
O 0.6616377434576288 -0.2993094663841228 0.2025514432722925 -0.6738758902636315
N 2.8300337541634577 -0.0585452859207895 0.2284234895599088 0.1207489421105395
N 1.1372064777007298 -0.7096452799411831 0.1118121475547197 0.4308753055723465
O 1.4275846845679121 -0.4502524591711133 -0.1419469685749087 -0.7095764258838037
N 1.5348421991377170 -0.2554647223798275 0.0649055500424615 0.9977500474782615
O 1.4872751489300797 -0.4348008964836294 0.1863769732288363 -0.9963537733476465
O 1.8288581812602287 -1.9057238479947436 -0.2270112864786148 -0.1586318904925156
N 1.8178098694018261 -1.8438151097827138 -0.0704799689511901 0.3123697133706422
