21
s                      x[A]                      y[A]                      z[A]                      q[e]
N -1.9712286786061088 1.4556812158032204 -0.7213237528936208 0.0707249461841811
O -1.6955617214243743 0.1569090325745389 0.1757725056974920 -0.3496602100029151
N -1.5219328212338035 0.1955238705025308 -0.3418565962786508 0.9824851761690530
N -3.1131099977875554 -0.4557125961763209 0.0811701457743619 0.1071394941056757
O -1.5676491885992050 0.0408624204477962 -0.4405910509315973 -0.8194842575378962
N -0.6184602115673383 -0.3160602924115221 0.2974182328155266 0.3116552922920345
N -0.8736914473169277 -1.7498464031771417 0.6826921644713743 0.0918298459672651
N -1.4000598917851819 -0.6383743733243887 0.2993335845826706 0.5593901217632046
O -1.0581227357672689 -0.5469452386908908 0.2766794090177753 -0.9963138680841535
N 1.2947143056681329 -0.4867243379078069 -0.0135585408747741 0.9989733053171830
O 1.3445453331580970 -0.5754898724211296 -0.0091652703006997 -0.8354521971080898
N 1.7283325593787255 -1.2318040209859367 -0.1899662253097123 0.2899344186932475
O 1.4637835413910476 -0.9519541386480614 -0.1484764920038725 -0.8678253524624289
N 0.2523262743445199 0.2891732982984720 0.1627893682371325 0.9219570073558310
O 0.4781379034745319 0.2386629383815994 0.2945248195922309 -0.9704818863270434
O 0.4736491195110198 0.3834374420888149 -0.3647479659558654 -0.3320651923316272
N 0.8179050617793451 -0.1830771242492708 -0.0049476270932344 0.9769593393400061
O 0.9213541574886269 1.0399874543548084 0.5730218600725944 -0.1970026432733326
O 0.7896727240243946 1.1077465555869230 -0.4208219021343451 -0.1946060569702309
N 2.1144658625485251 1.5746836004656868 -0.0911970948663716 0.1283355164991325
N 0.0558128173441111 2.1828242892573511 0.2918376767629723 0.1235072004109040
