21
s                      x[A]                      y[A]                      z[A]                      q[e]
N -1.9421859326428121 1.4462321840688979 -0.1642165465336837 0.0707249461841811
O -1.6319201732675830 -0.0432498764125469 0.2834889572279543 -0.3496602100029151
N -1.4829517823496872 0.1353814037111843 -0.2119676727316319 0.9824851761690530
N -3.0478620240128218 -0.6421746206013217 0.0473750296448616 0.1071394941056757
O -1.5312423274116957 0.0113436571568650 -0.3462855926123269 -0.8194842575378962
N -0.5079848219930599 -0.6258659115327820 -0.0788863696797210 0.3116552922920345
N -0.7501204123470907 -1.9949243793702667 0.2314282322066864 0.0918298459672651
N -1.2747911181398015 -0.9617348465708375 0.0393855970319720 0.5593901217632046
O -0.9731547775638959 -0.7777965959370629 0.0081485198041468 -0.9963138680841535
N 0.7368361255522099 0.8799935740925411 -0.0696386621140293 0.9989733053171830
O 0.7099467679384057 0.9773634671132277 -0.0829735271202979 -0.8354521971080898
N 0.5417088000070003 1.7320278825208129 0.0270350621843387 0.2899344186932475
O 0.5455943616695591 1.3454400003814957 0.0304225166893119 -0.8678253524624289
N 0.5160769626844272 -0.4071570155946657 -0.0742250552032412 0.9219570073558310
O 0.6280728434174656 -0.2334321216815292 -0.2420732049896303 -0.9704818863270434
O 0.7930564963966888 -0.2556279893401939 0.4120736818622434 -0.3320651923316272
N 0.6070979768709123 0.3403549427865203 -0.0111649802840350 0.9769593393400061
O 1.4810940618363340 -0.5678481764247968 -0.5511519306190555 -0.1970026432733326
O 1.5254313573235665 -0.5323487468511499 0.4520582737376614 -0.1946060569702309
N 2.7679042014333683 -0.0378884478744150 -0.0892558671716212 0.1283355164991325
N 1.6752611338907124 -1.9240137959029227 -0.0423978003017392 0.1235072004109040
