21
s                      x[A]                      y[A]                      z[A]                      q[e]
N -1.9802781770504649 1.4269580545651719 0.0453726893591787 0.0707249461841811
O -1.6271396897755426 -0.0991964210905546 0.2924496322128494 -0.3496602100029151
N -1.4948396955614212 0.1392240484403485 -0.1821173961021084 0.9824851761690530
N -3.0383822580507647 -0.6946794373841713 0.0109588601319828 0.1071394941056757
O -1.5456784888402073 0.0313395008563160 -0.3288607126068277 -0.8194842575378962
N -0.4810366519115863 -0.6535791058082053 -0.1262214593348160 0.3116552922920345
N -0.7286768082213417 -2.0178010730156730 -0.0167667183187236 0.0918298459672651
N -1.2417575509293011 -1.0122232036289500 -0.0398808156703712 0.5593901217632046
O -0.9447023747862892 -0.8193499420370611 -0.0586355786000152 -0.9963138680841535
N 0.7188403043836387 0.8870525640003168 -0.0842637590047222 0.9989733053171830
O 0.6901410910536907 0.9835522565921027 -0.0999089641230202 -0.8354521971080898
N 0.5009496329115828 1.7360338953494581 -0.0066032986262843 0.2899344186932475
O 0.5131299328596544 1.3489854628805964 0.0023911251222158 -0.8678253524624289
N 0.5330316644756838 -0.4047330652732301 -0.0785255022193405 0.9219570073558310
O 0.6472833888989786 -0.2281878502311456 -0.2418214353211140 -0.9704818863270434
O 0.7852362698946849 -0.2455734541345621 0.4186748761268031 -0.3320651923316272
N 0.6013427100814670 0.3449712810667884 -0.0130021084767539 0.9769593393400061
O 1.5211119379885218 -0.5398479299036628 -0.5143208978994172 -0.1970026432733326
O 1.5223881419007019 -0.5025698942163036 0.4897922840504588 -0.1946060569702309
N 2.7728247014447112 0.0245985967622422 0.0001573835266969 0.1283355164991325
N 1.7299029225470821 -1.8900207572825385 0.0044511260716400 0.1235072004109040
