21
s                      x[A]                      y[A]                      z[A]                      q[e]
N 0.0271971214164891 -0.0450254588500370 0.3788026038817932 0.0707249461841811
O 0.1028050164441220 0.2923651253132944 0.3139141938164527 -0.3496602100029151
N 0.3753645032935398 -0.1822616530459560 0.3124240539626586 0.9824851761690530
N 0.0336411981665419 -0.0110059152513965 -0.1884837960877563 0.1071394941056757
O 0.2563782441589345 -0.3289776296625197 0.3210235766737877 -0.8194842575378962
N 0.1011284629878970 0.1261650364595709 0.2906892188391056 0.3116552922920345
N 0.0297670638378517 -0.0163071972682082 0.2435910351251505 0.0918298459672651
N 0.0909298014376465 0.0397395619815420 -0.5502645293041546 0.5593901217632046
O 0.0474099240297968 0.0585222786592231 -0.1987722197615304 -0.9963138680841535
N 0.2262984311162374 0.0842456836847545 -0.4263089389339352 0.9989733053171830
O 0.2005577481289041 0.0998769149387411 -0.3289760575007288 -0.8354521971080898
N 0.0344533501187175 0.0064677435925390 0.4289236900812126 0.2899344186932475
O 0.0348070639902689 -0.0024868630403481 0.0416828885783972 -0.8678253524624289
N 0.0011201242551739 0.0786046098058547 -0.3512765841146874 0.9219570073558310
O 0.1206858174895361 0.2419012691052186 -0.1782867655744476 -0.9704818863270434
O 0.2581454100286432 -0.4185715768272633 -0.1999458107804713 -0.3320651923316272
N 0.0923089492585840 0.0130185836905221 0.3959846770070921 0.9769593393400061
O 0.1996740421976693 -0.5144309500005165 -0.0956121431350992 -0.1970026432733326
O 0.2308430823401594 0.4896763025117511 -0.0748352522344045 -0.1946060569702309
N 0.0218148169011127 -0.0000556638272070 0.1846954018807019 0.1283355164991325
N 0.0371605780610072 0.0045525948691580 -0.1492063550403392 0.1235072004109040
