21
s                      x[A]                      y[A]                      z[A]                      q[e]
N -1.7210758381427858 0.4037752678086109 -1.7543689133720619 0.0707249461841811
O -1.6532986987172751 0.3986354820103890 -0.1606472520959533 -0.3496602100029151
N -1.4591768163633667 -0.0188760948070894 -0.4565843500018733 0.9824851761690530
N -3.1362884060457690 0.0408686212591492 0.1117873218702973 0.1071394941056757
O -1.5207088975205281 -0.1844435377562442 -0.3890575572638551 -0.8194842575378962
N -0.6052743997999959 0.1150873509658119 0.5401354939267741 0.3116552922920345
N -1.0963036357377403 -0.2637216308277756 1.7926000189065934 0.0918298459672651
N -1.4343956889605904 0.0851179879713009 0.7027633531210449 0.5593901217632046
O -1.0920873160941900 0.0503306514334942 0.6166916616183354 -0.9963138680841535
N 1.0714621651829837 -0.7276353574146546 -0.0394532576685856 0.9989733053171830
O 1.0898042778284525 -0.8275352160194183 -0.0313701024104209 -0.8354521971080898
N 1.1998378088070187 -1.5862480172943669 -0.1829530473301895 0.2899344186932475
O 1.0526676117907841 -1.2308227416619484 -0.1378160992235914 -0.8678253524624289
N 0.3877046410935994 0.3688228655211042 0.1931213955808440 0.9219570073558310
O 0.6054445884288894 0.2536721173744025 0.2942452700551422 -0.9704818863270434
O 0.5250081527355378 0.3450539004124183 -0.3696822571729652 -0.3320651923316272
N 0.7283416236679068 -0.2783720665858700 0.0030143416534653 0.9769593393400061
O 1.3089391440856646 0.8749763114960645 0.4651913994279617 -0.1970026432733326
O 1.0716017969409275 0.9082972144104950 -0.5106248847546142 -0.1946060569702309
N 2.5088570664486785 0.9362983289337429 -0.3771919325705035 0.1283355164991325
N 0.8185555313488775 2.2140390950015014 0.1476705101919727 0.1235072004109040
