21
s                      x[A]                      y[A]                      z[A]                      q[e]
N       -2.1364487534251908        1.5657698239442028       -0.1945198777364061        0.0690680479201058
O       -1.8787932190494947       -0.2725318099876594        0.3279437265607577       -0.3117950550350966
N       -1.9766622748186675       -0.3918867877274181       -0.0235435023361746        0.5776243102962968
N       -3.3095628969174955       -0.6208244104639832       -0.0751369762110764        0.0604184539076988
O       -1.8256486493611621       -0.3394974936114463       -0.3390211716701810       -0.3968494342195521
O       -0.9211342822754192       -0.1728717363841107        0.1373408997455370       -0.9828651838991298
N       -0.7592762856121928       -0.0311450068238443        0.1294861839071856        0.7759263489545838
N       -0.9839063219982713       -1.3979015706700748        0.0981251662999268        0.9970342621901004
O       -0.9781183554716119       -1.4138827488378563       -0.1810222489747266       -0.3970377457969525
O       -1.0517066082626125       -1.3877566518980522        0.3655284243529286       -0.3893757401670396
N        1.8173683453441858       -1.2238502013805579       -0.1567132907454427        0.1691966627363242
O        1.4883834098383359       -0.9077010066930966       -0.0915393661835995       -0.6800109224217911
O        0.3616293876157389        0.4210471216308661       -0.3100240019294764       -0.9821368279659007
N        0.2130677010280326        0.4812525082470697       -0.1849420246291497        0.8921713087406896
O        0.5656871312934861        0.4911884933242244        0.3562462285247163       -0.3335771210350215
N        0.7912888537621610       -0.1138478964967963       -0.0562522184499315        0.9988617281482304
N        2.2473573128953004        1.7302670265844549       -0.0013955020966486        0.0655379221577991
N        1.0605539712831482        1.0971787231557639        0.0349546357347103        0.9908754307264420
O        0.9176539991887478        1.0940927886632337       -0.3137303049797732       -0.6595771554465193
O        0.9957771381189328        1.1415788096795461        0.4014780545627220       -0.5578053818499882
N       -0.2095685655263566        2.2419279732198705        0.0340507131111312        0.0943160920587207

        RMSE         6.892363110E+00 kcal/mol

Coordinates in bohr
s                   x[bohr]                   y[bohr]                   z[bohr]                      q[e]
+       -4.0373030250493924        2.9588761427608641       -0.3675892948793490        0.0690680479201058
-       -3.5504046303708421       -0.5150104813519887        0.6197238277618620       -0.3117950550350966
+       -3.7353503419317371       -0.7405587009902481       -0.0444907714494465        0.5776243102962968
+       -6.2541674701508843       -1.1731881077757433       -0.1419883069339744        0.0604184539076988
-       -3.4499759486045858       -0.6415572832050022       -0.6406571651884644       -0.3968494342195521
-       -1.7406915182707052       -0.3266802365983125        0.2595366863430256       -0.9828651838991298
+       -1.4348242333619405       -0.0588555330725809        0.2446934246152457        0.7759263489545838
+       -1.8593134816832555       -2.6416511189137730        0.1854296903218657        0.9970342621901004
-       -1.8483758101245518       -2.6718511688130255       -0.3420824731766725       -0.3970377457969525
-       -1.9874374539505009       -2.6224800008696341        0.6907486130971647       -0.3893757401670396
+        3.4343284417769726       -2.3127416991956644       -0.2961451997281316        0.1691966627363242
-        2.8126370142695092       -1.7153063064523155       -0.1729843317849988       -0.6800109224217911
-        0.6833805015107774        0.7956637457946674       -0.5858604559651197       -0.9821368279659007
+        0.4026396011239110        0.9094354377765964       -0.3494897756367693        0.8921713087406896
-        1.0689937508405933        0.9282117283590550        0.6732078051389762       -0.3335771210350215
+        1.4953192197379344       -0.2151413443384147       -0.1063012868197964        0.9988617281482304
+        4.2468898274169522        3.2697308041548787       -0.0026371167701680        0.0655379221577991
+        2.0041565469918163        2.0733672974439088        0.0660546883537438        0.9908754307264420
-        1.7341147363978333        2.0675357264119230       -0.5928643536681295       -0.6595771554465193
-        1.8817460730369755        2.1572713009204878        0.7586835685051592       -0.5578053818499882
+       -0.3960271933498769        4.2366298623883072        0.0643465221565740        0.0943160920587207
