21
s                      x[A]                      y[A]                      z[A]                      q[e]
N -2.1363997917739694 1.5661035911287891 -0.1945385000834168 0.0690680479201058
O -1.8784131347277673 -0.2737263311806878 0.3279197398495317 -0.3117950550350966
N -1.9774260558299339 -0.3897729635689996 -0.0234888376627275 0.5776243102962968
N -3.3096121305431847 -0.6206522749440128 -0.0751421525503474 0.0604184539076988
O -1.8250929787257526 -0.3410567383594580 -0.3390739483253736 -0.3968494342195521
O -0.9194812616789384 -0.1772544060068352 0.1371462601238919 -0.9828651838991298
N -0.7606237736685244 -0.0274809071718919 0.1296690071046623 0.7759263489545838
N -0.9864929783641190 -1.3942694149836312 0.0985658255436247 0.9970342621901004
O -0.9770248220974487 -1.4154754957561457 -0.1811866586704145 -0.3970377457969525
O -1.0506980429505381 -1.3892533569890273 0.3653401084645945 -0.3893757401670396
N 1.8168107453085702 -1.2228384594573303 -0.1566262973713383 0.1691966627363242
O 1.4904632814773728 -0.9117237904921049 -0.0918729514321928 -0.6800109224217911
O 0.3635206091689117 0.4154779487536816 -0.3104566390338751 -0.9821368279659007
N 0.2114279950144461 0.4862816174640239 -0.1846727989294017 0.8921713087406896
O 0.5663412025286640 0.4892228335512319 0.3562057186583500 -0.3335771210350215
N 0.7889847522920654 -0.1081924080092218 -0.0558834399665439 0.9988617281482304
N 2.2476502596648467 1.7309505371957459 -0.0013893832871120 0.0655379221577991
N 1.0595567745015502 1.1036696209237402 0.0351440745927638 0.9908754307264420
O 0.9185590314500964 1.0898455013069008 -0.3141098369581299 -0.6595771554465193
O 0.9964995769584948 1.1379828441704209 0.4016143303883770 -0.5578053818499882
N -0.2097844397879119 2.2425572264778992 0.0340568487968103 0.0943160920587207
