21
s                      x[A]                      y[A]                      z[A]                      q[e]
N 1.7799343818702476 0.9060994695362983 -1.5216181111631140 0.0707249461841811
O 1.6242054268118942 -0.1320319089453460 -0.3499904805527639 -0.3496602100029151
N 1.5076755552062793 0.3915148697981956 -0.2409146014911689 0.9824851761690530
N 3.1355715459303855 -0.1829446311060441 0.0892192780840253 0.1071394941056757
O 1.5870650492540264 0.4463525006376573 -0.0782837760228895 -0.8194842575378962
N 0.6851316492645575 -0.0822645963922753 0.2458042515098591 0.3116552922920345
N 1.0395884378823175 -1.0173020753680062 1.5071453953763481 0.0918298459672651
N 1.4573343462295254 -0.2606846659025513 0.5401804887297017 0.5593901217632046
O 1.1216834343569326 -0.2338888209045235 0.4287625142107147 -0.9963138680841535
N -1.1288733493815943 -0.6204204302303158 -0.2474394587118327 0.9989733053171830
O -1.1534188944483703 -0.7150656175376977 -0.2761022740202407 -0.8354521971080898
N -1.4301598529525987 -1.4455567045198332 -0.2990608383146646 0.2899344186932475
O -1.2349322702284162 -1.1214271352748761 -0.2162976169098179 -0.8678253524624289
N -0.2854386815566496 0.3405294985853933 0.0498897920181702 0.9219570073558310
O -0.4277836066828893 0.2697555427242876 -0.1637112073137362 -0.9704818863270434
O -0.7058710364524107 0.3251127508508695 0.4488435843433852 -0.3320651923316272
N -0.7594468996272390 -0.2397741898095667 -0.0480865542699924 0.9769593393400061
O -0.9143164383334162 1.0617014288960656 -0.4370585704115160 -0.1970026432733326
O -1.1762084959922268 0.9087919534380343 0.5209017428828325 -0.1946060569702309
N -2.3560838416882084 1.2479907688940031 -0.2385487874452188 0.1283355164991325
N -0.4900024532361997 2.2136017300919670 0.3543273291970607 0.1235072004109040
