21
s                      x[A]                      y[A]                      z[A]                      q[e]
N       -1.9286022928701314        1.2623173545051518       -1.1694330161379765        0.0690680479201058
O       -1.8916524368205854        0.0131278568907274        0.3185261485989471       -0.3117950550350966
N       -1.9825570806983166       -0.2647517303091654        0.0709282576582878        0.5776243102962968
N       -3.3362849280982290       -0.3738928766924994        0.0784038630176882        0.0604184539076988
O       -1.8098936489600304       -0.3998413386025906       -0.2058832010324621       -0.3968494342195521
O       -0.8914045174573486       -0.0404380272634593        0.4167014158349865       -0.9828651838991298
N       -0.7223389890068683        0.0986988337555096        0.3846464802636844        0.7759263489545838
N       -1.0816386416463866       -1.0963002640032862        0.7905568551924502        0.9970342621901004
O       -1.0564303195503237       -1.2666242639583420        0.5693456273914335       -0.3970377457969525
O       -1.1554787105165030       -0.9521484931579671        1.0119475142920313       -0.3893757401670396
N        1.6313174623542406       -1.3420164198923037       -0.3836265223418791        0.1691966627363242
O        1.3551206741190376       -1.0085157315809563       -0.2573964434802280       -0.6800109224217911
O        0.3425767935360367        0.4325667126891360       -0.2466015976587392       -0.9821368279659007
N        0.2228238747290777        0.5200785839857693       -0.0912681305925351        0.8921713087406896
O        0.6721183631489724        0.4519514283517078        0.3715530513765529       -0.3335771210350215
N        0.7479671309555748       -0.1325322920976272       -0.0979809439898361        0.9988617281482304
N        2.3737389876624544        1.5715350577079996       -0.1605778725808161        0.0655379221577991
N        1.1562435095095827        1.0439373208542988        0.0491437598357506        0.9908754307264420
O        0.9511703426887953        1.0740945285484560       -0.2648095841019394       -0.6595771554465193
O        1.1686155626945252        1.0289074051233238        0.4220339697070398       -0.5578053818499882
N        0.0239017195422904        2.2566023027403395        0.4222287249189177        0.0943160920587207

        RMSE         6.161754500E-01 kcal/mol

Coordinates in bohr
s                   x[bohr]                   y[bohr]                   z[bohr]                      q[e]
+       -3.6445301384545572        2.3854340834271963       -2.2099081225688799        0.0690680479201058
-       -3.5747050301458239        0.0248080541376792        0.6019271846488927       -0.3117950550350966
+       -3.7464899106070124       -0.5003082615253951        0.1340349815300707        0.5776243102962968
+       -6.3046647905984150       -0.7065551372083984        0.1481618282813423        0.0604184539076988
-       -3.4202033127399689       -0.7555906235953450       -0.3890628637839297       -0.3968494342195521
-       -1.6845104049902804       -0.0764167965817350        0.7874515520186404       -0.9828651838991298
+       -1.3650228589630740        0.1865137647000055        0.7268765028196832        0.7759263489545838
+       -2.0440007994238942       -2.0717072502333242        1.4939359429169543        0.9970342621901004
-       -1.9963639745800086       -2.3935729627408713        1.0759073064967699       -0.3970377457969525
-       -2.1835383066733587       -1.7992998828359146        1.9123036553497605       -0.3893757401670396
+        3.0827432275263753       -2.5360434894638688       -0.7249490616879801        0.1691966627363242
-        2.5608069410307692       -1.9058185259037475       -0.4864087838445161       -0.6800109224217911
-        0.6473763167206209        0.8174326179720706       -0.4660094816753595       -0.9821368279659007
+        0.4210760974512804        0.9828060874490215       -0.1724717708024104        0.8921713087406896
-        1.2701196302425652        0.8540644215942040        0.7021335081798468       -0.3335771210350215
+        1.4134530283504863       -0.2504497348436942       -0.1851571496546135        0.9988617281482304
+        4.4857165800035572        2.9697708556236826       -0.3034482009864064        0.0655379221577991
+        2.1849835673113049        1.9727556285588197        0.0928682468648430        0.9908754307264420
-        1.7974514463396918        2.0297444918093261       -0.5004175893490568       -0.6595771554465193
-        2.2083633594404448        1.9443532041385665        0.7975286183860708       -0.5578053818499882
+        0.0451677038624320        4.2643603262567149        0.7978966523980255        0.0943160920587207
