21
s                      x[A]                      y[A]                      z[A]                      q[e]
N -1.9193541277620074 1.3782261481624771 -0.9272811463992954 0.0707249461841811
O -1.6977249583489424 0.2088895911689174 0.1355013719784010 -0.3496602100029151
N -1.5088345628630901 0.1605235014281121 -0.3787251632042197 0.9824851761690530
N -3.1259455231929918 -0.3958819817757147 0.0827359059089461 0.1071394941056757
O -1.5540055584446728 0.0213134542801168 -0.4572830114260298 -0.8194842575378962
N -0.6186871520242079 -0.2956670623708748 0.3565195609001095 0.3116552922920345
N -0.9138505160231821 -1.6519074781270684 0.8909146213604775 0.0918298459672651
N -1.4069679503313535 -0.5972112999610425 0.3922817907680985 0.5593901217632046
O -1.0657259688827974 -0.4943322605316331 0.3410522924355980 -0.9963138680841535
N 1.2764701266298997 -0.5197795606381160 -0.0376859465034358 0.9989733053171830
O 1.3265209743688209 -0.5958069452531595 -0.0443577192599454 -0.8354521971080898
N 1.6829107778433574 -1.2727031164935367 -0.2335732973581476 0.2899344186932475
O 1.4296839969207122 -0.9748475922183059 -0.1883497055870914 -0.8678253524624289
N 0.2647469917181502 0.2846427910767745 0.1845787152934674 0.9219570073558310
O 0.4936805698365784 0.2441299872523845 0.2950757586374287 -0.9704818863270434
O 0.4645882928055194 0.3879209390931461 -0.3610849938442369 -0.3320651923316272
N 0.8079418500341889 -0.2015952103716032 -0.0071179083394392 0.9769593393400061
O 0.9707159087008210 1.0255772677355259 0.5806109041320452 -0.1970026432733326
O 0.8026446349532930 1.1093227582666991 -0.4069782865393632 -0.1946060569702309
N 2.1532244928692164 1.5372260374428586 -0.1189207760166803 0.1283355164991325
N 0.1228554152005671 2.1886696137720705 0.3501823355159007 0.1235072004109040
