21
s                      x[A]                      y[A]                      z[A]                      q[e]
N 0.0262458977750132 -0.0434763516880381 0.3758466887354235 0.0707249461841811
O 0.1098302453884175 0.2980388082199369 0.3102013446137070 -0.3496602100029151
N 0.3660136706805088 -0.1885263943728120 0.3186952165829082 0.9824851761690530
N 0.0361599111860614 -0.0080639768232535 -0.1894378959227830 0.1071394941056757
O 0.2655349031195105 -0.3207851370767185 0.3170118170984915 -0.8194842575378962
N 0.0936481710634573 0.1320269472808350 0.2873993386470354 0.3116552922920345
N 0.0296582182851781 -0.0190625115007990 0.2466687814781020 0.0918298459672651
N 0.0812702935364875 0.0466744209396789 -0.5529316768961412 0.5593901217632046
O 0.0567022017056275 0.0500587587290881 -0.1937108488839393 -0.9963138680841535
N 0.2188362727327210 0.0883118597106419 -0.4238958984055741 0.9989733053171830
O 0.2051816309132777 0.0948265969787025 -0.3338910536603396 -0.8354521971080898
N 0.0299158726412257 0.0096393127030706 0.4296727578384787 0.2899344186932475
O 0.0396522433901133 -0.0071036136483512 0.0365929101329213 -0.8678253524624289
N -0.0050658585433613 0.0842585955055644 -0.3453852294463847 0.9219570073558310
O 0.1258980676294810 0.2351689399133628 -0.1831015733263329 -0.9704818863270434
O 0.2612620058144620 -0.4230957433387575 -0.2039184542999109 -0.3320651923316272
N 0.0852848059200656 0.0183995690828259 0.4000911214430425 0.9769593393400061
O 0.1971529497196439 -0.5121810570347565 -0.0949340279185326 -0.1970026432733326
O 0.2283988129884794 0.4924264113881737 -0.0754096792254792 -0.1946060569702309
N 0.0225523897442497 -0.0007385091029814 0.1844048270992819 0.1283355164991325
N 0.0370432090361272 0.0025593988172353 -0.1475588518449974 0.1235072004109040
