25
s                      x[A]                      y[A]                      z[A]                      q[e]
N 2.0071875691577628 1.2021104008825738 0.0644589287267348 0.1158659338886357
O 1.8124560015198907 -0.4389544488342167 -0.2474994097135967 -0.2341991647481463
N 3.1787493434322904 -0.8478408191674741 0.4910477146268512 0.0569852111266852
N 2.0116694576774945 -0.6412132676120993 0.2855781371464127 0.3189271149812888
O 1.7166514295152069 -0.4437095324435397 0.5296824901947776 -0.2877498234141676
N 1.1725378322455984 -1.0157664722439574 0.2204808179683364 0.5692545008206258
O 0.8532878621975608 -0.5729593422050817 -0.5430196071217815 -0.2058946535748549
O 0.9789332041495132 -0.7811631678238963 0.2229411888381989 -0.9992971180892700
N 0.6310967755178961 -0.4459232501042725 -0.0902760947901876 0.6691943173322236
N 0.6006031232569580 -2.1797511158452312 0.0696507247314271 0.0628076875181509
N -0.4163075231458130 1.6872096212249861 -0.2364836161625887 0.7576134719858190
O -0.4157202646319176 1.3315040711447894 -0.3104477152599109 -0.9235083265987739
N -0.5338235449356724 0.9226748731461283 -0.2515396316404934 0.9955526175656415
O -0.4502275151303631 1.4897329010823330 -0.1895673834774591 -0.9936641819349231
O -0.5043333113004212 -0.1408901069231392 -0.1011298952132894 -0.9934394819660318
N -0.4587977359018393 0.2764979225803574 -0.2733687698566868 0.8475065253219278
N -0.4857979516664351 -0.4248769390641014 -0.1906011035062101 0.9207393412409772
O -0.6649306466777676 -0.2303693597411521 -0.4951616156325760 -0.6738758902636315
N -2.8256907672418952 0.0123259722135686 0.3185606033237026 0.1207489421105395
N -1.1908664591417206 -0.6009882556548606 -0.3709398351276785 0.4308753055723465
O -1.4044426945288735 -0.4697750658241098 0.1507344326803983 -0.7095764258838037
N -1.5622366448432219 -0.1986218106762183 0.0744947718261396 0.9977500474782615
O -1.5549516716288294 -0.3212950242410604 -0.1318853341600821 -0.9963537733476465
O -1.8820089089295469 -1.8514786533561067 -0.2213300161859891 -0.1586318904925156
N -1.8986218756720903 -1.7411741633535796 -0.3561737027360088 0.3123697133706422
