30
s                      x[A]                      y[A]                      z[A]                      q[e]
N 1.9880476807504699 1.4940769246166243 -0.3353150318746857 0.2137068255539760
N 1.6159512260723992 0.7424689107381383 -0.3901374099706080 0.4524136045707061
O 1.4921403358124634 0.8265803143510962 -0.9214410519895437 -0.5303393512711568
N 1.2247255275994646 1.0972947098064507 -1.4576480135009928 0.2065219334641430
N 3.3038719813105466 0.8775712104446178 -0.8148592798204751 0.0640972179527254
N 1.7016700098349449 1.8328414637849164 0.3131942246604074 0.2729192555687945
O 1.8580653281727202 1.4810301949222691 -0.0175656082510163 -0.5760168259183410
O 2.5621961845483692 -1.2323136149266138 0.1168446103760055 -0.7855321009151053
O 2.1749905200363036 -1.5281299800043455 0.3710084662055275 -0.7445427033607991
N 2.3749823008945898 -1.3891670974648278 0.2741302184914451 0.9977538426035523
N 1.7826730042072845 -0.1184872971657133 0.0187768640482828 0.2084365764815679
N 1.3157974375501407 -0.6721084303773401 0.3377927018401279 0.3300899125146088
N -0.1433446510881041 -0.5066243007470557 0.4582567325714174 0.6266498413516267
O 0.0363471847036592 -0.0736624461038030 0.4735814403424637 -0.5811225412727979
N 0.1139991648588922 -0.0927536431872033 1.9030173764376790 0.5003074335780895
O 0.1113890551318855 -0.2257233590809634 1.6565190024322252 -0.5967490130385100
N -0.0741403364223257 -1.4114356727291826 0.8465140878279521 0.9708061175491041
O -0.1612300212888209 -1.5752734580995844 0.4733093424598922 -0.1568654630532827
O -0.0559388129384710 -1.4110997208308307 0.8956154075655093 -0.7813807259506527
N -0.6836672572829015 -0.0989243555875140 -0.3469813559852589 0.1400529194232831
N -0.7206852050045300 0.4621683139579512 0.0388874335681637 0.1778327620465852
N -1.0207947448708468 0.9766522185730122 0.0607628251663720 0.7120624373414439
O -1.0304821531291841 1.1363210454121526 0.0540988773454638 -0.9970019554920370
N -1.7990382313418396 -0.1372047351611247 0.4234972019822167 0.9931708722557875
N -2.4768123916416922 -0.3888063525052542 0.7120176590748170 0.8506195801821621
O -2.2020187573820786 -0.3746538880422059 0.6505652424640953 -0.8089940633040810
O -2.3552168390880248 -0.3064443824316624 0.5849120803920553 -0.9883399134133223
N -1.0983463396722182 -0.3294537892239732 -1.7461596928462615 0.2529889584625400
N -1.1407166988068871 -0.0753322212160202 -0.9377965431778664 0.5419198115726583
O -1.0889349730124622 -0.2752713715800286 -1.3365768480124955 -0.9654652454832693
