21
s                      x[A]                      y[A]                      z[A]                      q[e]
N       -1.7841779397171287        0.9811850538751045       -1.4720628899296031        0.0707249461841811
O       -1.6815702178127359        0.3390479067891198       -0.0095299831252770       -0.3496602100029151
N       -1.4715521877799196        0.0966958313155254       -0.4530791759742739        0.9824851761690530
N       -3.1363331033899704       -0.1654167765747382        0.1013704140594982        0.1071394941056757
O       -1.5220197553580967       -0.0853562767681305       -0.4613675701960294       -0.8194842575378962
N       -0.6172946576318247       -0.0973964731005607        0.4882538321182858        0.3116552922920345
N       -1.0366576481181451       -1.0455490130961931        1.4872757474904508        0.0918298459672651
N       -1.4356886215445024       -0.2664517190328002        0.6164713781009568        0.5593901217632046
O       -1.0899916814464907       -0.2416130255864955        0.5411707678064434       -0.9963138680841535
N        1.1748683746916337       -0.6289814711515224       -0.0854469494352943        0.9989733053171830
O        1.2079386600722277       -0.7253457704091065       -0.0840220642050722       -0.8354521971080898
N        1.4357784374799580       -1.4449290405428954       -0.2865531361989791        0.2899344186932475
O        1.2352421704747250       -1.1200887501544736       -0.2210739113369759       -0.8678253524624289
N        0.3270945370160921        0.3309926160114259        0.2007612684742605        0.9219570073558310
O        0.5570513338438587        0.2420932564081405        0.3013256404349734       -0.9704818863270434
O        0.4811667557325076        0.3720576084147684       -0.3566798381758413       -0.3320651923316272
N        0.7668770172179447       -0.2412266876433477       -0.0232743640210667        0.9769593393400061
O        1.1596333701818089        0.9363181767891456        0.5540300013482508       -0.1970026432733326
O        0.9395674134856988        1.0295092816779936       -0.4219531501813460       -0.1946060569702309
N        2.3540612483689132        1.2513716704074223       -0.2377453643957887        0.1283355164991325
N        0.4835899961366524        2.2141379263269014        0.3460343937869705        0.1235072004109040

        RMSE         1.536057422E+00 kcal/mol

Coordinates in bohr
s                   x[bohr]                   y[bohr]                   z[bohr]                      q[e]
+       -3.3716076651489799        1.8541710302165315       -2.7817957014169221        0.0707249461841811
-       -3.1777071723925374        0.6407076872411902       -0.0180090580870082       -0.3496602100029151
+       -2.7808306142223378        0.1827286386598115       -0.8561955557394901        0.9824851761690530
+       -5.9268106036142552       -0.3125924042823032        0.1915623197967113        0.1071394941056757
-       -2.8762004951631277       -0.1612999861805453       -0.8718583508384352       -0.8194842575378962
+       -1.1665178416324047       -0.1840526597455801        0.9226660224088251        0.3116552922920345
+       -1.9589990408045268       -1.9758012854945251        2.8105438357925245        0.0918298459672651
+       -2.7130582961551828       -0.5035207746294313        1.1649620687943689        0.5593901217632046
-       -2.0597857569611402       -0.4565824467017112        1.0226645382579083       -0.9963138680841535
+        2.2201794616289567       -1.1886027184639312       -0.1614713326885497        0.9989733053171830
-        2.2826732438890116       -1.3707048523324243       -0.1587786898432200       -0.8354521971080898
+        2.7132280236748958       -2.7305201573466227       -0.5415069478070861        0.2899344186932475
-        2.3342694008133202       -2.1166609739983149       -0.4177691459106309       -0.8678253524624289
+        0.6181190920938419        0.6254853938104227        0.3793838140158631        0.9219570073558310
-        1.0526744587858703        0.4574899514316239        0.5694229350002810       -0.9704818863270434
-        0.9092733890095048        0.7030869827967462       -0.6740272086249577       -0.3320651923316272
+        1.4491875344499228       -0.4558523737972892       -0.0439821737440255        0.9769593393400061
-        2.1913894755852730        1.7693849204194900        1.0469649678352253       -0.1970026432733326
-        1.7755250878927629        1.9454905859882268       -0.7973758916169200       -0.1946060569702309
+        4.4485310419706048        2.3647497382267084       -0.4492736263052133        0.1283355164991325
+        0.9138526497094822        4.1841142847469657        0.6539102342462001        0.1235072004109040
