21
s                      x[A]                      y[A]                      z[A]                      q[e]
N -1.9423660477709295 1.4643899415883992 -0.2328473617858424 0.0707249461841811
O -1.6293051979863042 0.0055397447631899 0.3044166592816439 -0.3496602100029151
N -1.4885243698739241 0.1457034264607981 -0.2055959765139649 0.9824851761690530
N -3.0506129530467572 -0.6084719792538933 0.1195668558241306 0.1071394941056757
O -1.5413030030695904 0.0130201143459363 -0.3295645107392420 -0.8194842575378962
N -0.5321985311227757 -0.5833545611884652 -0.0779580120470523 0.3116552922920345
N -0.7796826095654765 -1.9576676336324357 0.3756025540055952 0.0918298459672651
N -1.3146171985078163 -0.8828257517245226 0.0357351293910628 0.5593901217632046
O -1.0049245030828875 -0.7127771751220915 0.0046315445188408 -0.9963138680841535
N 0.7816501587893743 0.8641097468174246 -0.1108319432929229 0.9989733053171830
O 0.7597471672518181 0.9618212379133821 -0.1296594687274775 -0.8354521971080898
N 0.6277914009043053 1.7296873459185802 -0.0619117672072610 0.2899344186932475
O 0.6115101476628219 1.3426988554038930 -0.0385071947078947 -0.8678253524624289
N 0.5013853947230167 -0.4074438182705196 -0.0606357918362772 0.9219570073558310
O 0.6243330231267075 -0.2447302072798255 -0.2318215941718992 -0.9704818863270434
O 0.7761535469447427 -0.2524769249075334 0.4258340366738360 -0.3320651923316272
N 0.6256867357695430 0.3368359977709700 -0.0202345784571020 0.9769593393400061
O 1.4667519766775581 -0.6283967278757213 -0.5130048867169071 -0.1970026432733326
O 1.4943732586108220 -0.5613371530156211 0.4891911009025646 -0.1946060569702309
N 2.7690366468378773 -0.1424492819471421 -0.0248583013342016 0.1283355164991325
N 1.5887284644868052 -1.9741811249204160 0.0435046797169110 0.1235072004109040
