21
s                      x[A]                      y[A]                      z[A]                      q[e]
N       -1.8651767042007568        1.2781274250198185       -1.1190676470488472        0.0707249461841811
O       -1.6908192463127953        0.2428114817922740        0.0924727449104245       -0.3496602100029151
N       -1.4903848585122810        0.1508544594952440       -0.4084743083192727        0.9824851761690530
N       -3.1251307642363617       -0.3262416057691009        0.0873110797803986        0.1071394941056757
O       -1.5360944695555987       -0.0222851207697088       -0.4692358102566079       -0.8194842575378962
N       -0.6176148343154022       -0.2389774722711260        0.4000463685570591        0.3116552922920345
N       -0.9524651423389346       -1.4987658200827907        1.0922492229054466        0.0918298459672651
N       -1.4172220945951359       -0.5050479265394987        0.4680378247636573        0.5593901217632046
O       -1.0726787116279652       -0.4381553506777707        0.4169618270338558       -0.9963138680841535
N        1.2519202048030373       -0.5412828104890636       -0.0644470241177464        0.9989733053171830
O        1.2960103334054001       -0.6331350216677438       -0.0634550030026826       -0.8354521971080898
N        1.6199482370988487       -1.3136919105413294       -0.2699409286878067        0.2899344186932475
O        1.3785792417438401       -1.0169135822886302       -0.2092188610895767       -0.8678253524624289
N        0.2803797394740096        0.3021623006739026        0.1900360730725895        0.9219570073558310
O        0.5123393206052533        0.2371107197468386        0.3034356409435528       -0.9704818863270434
O        0.4638437560409008        0.3806055869542748       -0.3543468574342869       -0.3320651923316272
N        0.7982558241707601       -0.2067054937635868       -0.0194715751856957        0.9769593393400061
O        1.0211638301058450        0.9946231967856088        0.5830685662636742       -0.1970026432733326
O        0.8307506197711902        1.0907941818988587       -0.3988431763838105       -0.1946060569702309
N        2.2008598899347294        1.4690666094276739       -0.1484242238606229        0.1283355164991325
N        0.2094993071635655        2.1912529986118781        0.3781326761317038        0.1235072004109040

        RMSE         1.538922464E+00 kcal/mol

Coordinates in bohr
s                   x[bohr]                   y[bohr]                   z[bohr]                      q[e]
+       -3.5246731465234977        2.4153107867240924       -2.1147313687828264        0.0707249461841811
-       -3.1951853031842039        0.4588472007039879        0.1747481619500266       -0.3496602100029151
+       -2.8164192041174263        0.2850736132499823       -0.7719045720092456        0.9824851761690530
+       -5.9056412506494409       -0.6165072856331832        0.1649940285029520        0.1071394941056757
-       -2.9027978502904994       -0.0421127749275016       -0.8867271696422843       -0.8194842575378962
+       -1.1671228878761235       -0.4516019727466205        0.7559780740568056        0.3116552922920345
+       -1.7998982630657938       -2.8322569261536765        2.0640518920354332        0.0918298459672651
+       -2.6781616177324938       -0.9544022613899967        0.8844633051583360        0.5593901217632046
-       -2.0270689855858097       -0.8279936131849196        0.7879436578645055       -0.9963138680841535
+        2.3657863180048144       -1.0228762682424219       -0.1217872251833161        0.9989733053171830
-        2.4491045858994949       -1.1964517913878436       -0.1199125769651742       -0.8354521971080898
+        3.0612585055350467       -2.4825179241525581       -0.5101144252716969        0.2899344186932475
-        2.6051372091371774       -1.9216881637837333       -0.3953663477395054       -0.8678253524624289
+        0.5298409187330955        0.5710039937119172        0.3591161320646852        0.9219570073558310
-        0.9681809992470614        0.4480743217317102        0.5734102580860727       -0.9704818863270434
-        0.8765376639209775        0.7192403211627043       -0.6696185139674524       -0.3320651923316272
+        1.5084848857343558       -0.3906167718407101       -0.0367959443322255        0.9769593393400061
-        1.9297199681235944        1.8795654399521475        1.1018399026017041       -0.1970026432733326
-        1.5698911499219008        2.0613022630316715       -0.7537043703730714       -0.1946060569702309
+        4.1590224324818985        2.7761335518732269       -0.2804811334802202        0.1283355164991325
+        0.3958963140123040        4.1408680389646717        0.7145671969753644        0.1235072004109040
