21
s                      x[A]                      y[A]                      z[A]                      q[e]
N -1.9523718077757675 1.4605298280441383 -0.1649155545798731 0.0707249461841811
O -1.6333911822889229 -0.0221870303825361 0.2925363100923145 -0.3496602100029151
N -1.4887229427304338 0.1484339234219759 -0.2070010543641460 0.9824851761690530
N -3.0504887901893580 -0.6284173255716903 0.0682130722313568 0.1071394941056757
O -1.5382849565475407 0.0223150972766428 -0.3388960557548447 -0.8194842575378962
N -0.5219661235902222 -0.6046501547164065 -0.0789619692067993 0.3116552922920345
N -0.7569831330745880 -1.9751882591860732 0.2633490014496729 0.0918298459672651
N -1.2964689411434258 -0.9223550149590787 0.0393473830189093 0.5593901217632046
O -0.9907903282936075 -0.7453538728394821 0.0073364734638315 -0.9963138680841535
N 0.7633340931184323 0.8713008487708149 -0.0845929662037774 0.9989733053171830
O 0.7393133032922885 0.9690642112806106 -0.1003117082458413 -0.8354521971080898
N 0.5911868108963252 1.7307721023369116 -0.0083574920089433 0.2899344186932475
O 0.5837939454927547 1.3438288543821872 0.0032059335906390 -0.8678253524624289
N 0.5068041505890550 -0.4073916424400821 -0.0712217869945222 0.9219570073558310
O 0.6240651840159032 -0.2391066180512486 -0.2410052315912521 -0.9704818863270434
O 0.7846518362323571 -0.2553152321786966 0.4144103768797904 -0.3320651923316272
N 0.6160586679503752 0.3385123702701942 -0.0190089508899701 0.9769593393400061
O 1.4704297385394285 -0.5995557100702184 -0.5397320036230456 -0.1970026432733326
O 1.5098250190691045 -0.5497223707808129 0.4630747422477017 -0.1946060569702309
N 2.7715849731937974 -0.0958856669663468 -0.0397538200771775 0.1283355164991325
N 1.6277889226970317 -1.9521282933331505 -0.0091641016479262 0.1235072004109040
