25
s                      x[A]                      y[A]                      z[A]                      q[e]
N        1.7261537591011060        0.6101299055644980       -1.5392864253405869        0.1158659338886357
O        1.7970391413167301       -0.3957939043326378       -0.1881246809355156       -0.2341991647481463
N        3.3788984308847394       -0.0903645182483647        0.0445803182938337        0.0569852111266852
N        2.1761965935257117       -0.0506870757445514        0.1311043984890168        0.3189271149812888
O        1.9279083044927461        0.3011895879789611        0.1439899166916580       -0.2877498234141676
N        1.4880908234291117       -0.1510989433111478        0.5294368434858466        0.5692545008206258
O        0.7250624564276142       -0.3000831315182060        0.9342951078480898       -0.2058946535748549
O        1.2262896360129201       -0.2250361939221639        0.3933451937441773       -0.9992971180892700
N        0.6672764207777205       -0.2768431907559765        0.4179576068937998        0.6691943173322236
N        1.1153868412608070       -0.6936769043449104        1.8228670716331314        0.0628076875181509
N       -1.3015458266405993       -1.4074937856994507       -0.2448636108652424        0.7576134719858190
O       -1.1447790605035078       -1.1129997949149577       -0.1010062453519035       -0.9235083265987739
N       -0.9984168025154341       -0.7091429170694268       -0.1071358394608972        0.9955526175656415
O       -1.2060779481098014       -1.2256089030495403       -0.2572138082788222       -0.9936641819349231
O       -0.3525935064451785        0.1569577751965766       -0.0064084969909653       -0.9934394819660318
N       -0.6053515551951641       -0.2104628162206951        0.0776626843543557        0.8475065253219278
N       -0.2240138764181621        0.3810140372284416        0.1428002416473584        0.9207393412409772
O       -0.5807174396366895        0.3260698820035935        0.3228628257024688       -0.6738758902636315
N       -2.4785108073427877        1.1903233334489864       -0.2973581579655492        0.1207489421105395
N       -0.7421915968223997        0.9172048242510863        0.1847146046226163        0.4308753055723465
O       -1.0155844735579382        0.8465722113165299       -0.1930067825931518       -0.7095764258838037
N       -1.2837981534216927        0.7212241578895064       -0.0642248278934475        0.9977500474782615
O       -1.1912971164416832        0.8543824103747160        0.1129953014955483       -0.9963537733476465
O       -0.6365206201588340        2.3054131229319390       -0.1087924430678506       -0.1586318904925156
N       -0.6950955024607772        2.2470586614072912        0.0454464332396106        0.3123697133706422

        RMSE         1.187281475E+00 kcal/mol

Coordinates in bohr
s                   x[bohr]                   y[bohr]                   z[bohr]                      q[e]
+        3.2619578551305985        1.1529784224683493       -2.9088297725286978        0.1158659338886357
-        3.3959118138165270       -0.7479420813143419       -0.3555041244072620       -0.2341991647481463
+        6.3851926401113541       -0.1707641909483454        0.0842445921610831        0.0569852111266852
+        4.1124155569178678       -0.0957846912575386        0.2477514069871289        0.3189271149812888
-        3.6432186904870481        0.5691658331197218        0.2721015073747223       -0.2877498234141676
+        2.8120841060880442       -0.2855356207041473        1.0004906349151315        0.5692545008206258
-        1.3701694664998909       -0.5670749334391513        1.7655618741879744       -0.2058946535748549
-        2.3173515625517860       -0.4252567748283073        0.7433146889416430       -0.9992971180892700
+        1.2609696852456493       -0.5231578102266740        0.7898254090810464        0.6691943173322236
+        2.1077756539224306       -1.3108593687672880        3.4447195285019347        0.0628076875181509
+       -2.4595651520833459       -2.6597777782557936       -0.4627251626259878        0.7576134719858190
-       -2.1633188985105463       -2.1032647900800003       -0.1908741406758954       -0.9235083265987739
+       -1.8867343158094849       -1.3400858970694698       -0.2024573948021132        0.9955526175656415
-       -2.2791570078816625       -2.3160651636864267       -0.4860636533329913       -0.9936641819349231
-       -0.6663051607962369        0.2966072083827075       -0.0121103041887450       -0.9934394819660318
+       -1.1439486489388282       -0.3977170822496771        0.1467612035976109        0.8475065253219278
+       -0.4233248747324822        0.7200121803167476        0.2698533473627042        0.9207393412409772
-       -1.0973969171904314        0.6161827747471419        0.6101223166690926       -0.6738758902636315
+       -4.6837066248652395        2.2493851009605996       -0.5619254797255141        0.1207489421105395
+       -1.4025388506105518        1.7332659187832336        0.3490600141089713        0.4308753055723465
-       -1.9191765122917708        1.5997896248114518       -0.3647299594568381       -0.7095764258838037
+       -2.4260269103354899        1.3629161334751219       -0.1213673351732804        0.9977500474782615
-       -2.2512252841224254        1.6145487620167320        0.2135301732901216       -0.9963537733476465
-       -1.2028496453067674        4.3565994083778046       -0.2055879219177007       -0.1586318904925156
+       -1.3135401306883667        4.2463254578976537        0.0858813122017672        0.3123697133706422
