21
s                      x[A]                      y[A]                      z[A]                      q[e]
N       -2.0071535027801639        1.3854893036713767       -0.1836290858181016        0.0707249461841811
O       -1.6352993590176375       -0.0918378270295454        0.2564093921342079       -0.3496602100029151
N       -1.4887577543118542        0.0871161087408433       -0.2244439379091206        0.9824851761690530
N       -3.0274234660874684       -0.7438086424258611        0.0163129855986713        0.1071394941056757
O       -1.5333574296380279       -0.0266829280628193       -0.3719409171663828       -0.8194842575378962
N       -0.4592231918546357       -0.6790533043984017       -0.0784995693751596        0.3116552922920345
N       -0.6970395152357471       -2.0126920241557205        0.2116965242583561        0.0918298459672651
N       -1.2056732177810219       -1.0584899991963665        0.0263148811252397        0.5593901217632046
O       -0.9116928690580063       -0.8632609934032324        0.0160258600997683       -0.9963138680841535
N        0.6867872486442941        0.8922966400377098       -0.0578864976865359        0.9989733053171830
O        0.6620740623086442        0.9898887733499906       -0.0911437504125608       -0.8354521971080898
N        0.4513479454941146        1.7358378875774669        0.0284114665460119        0.2899344186932475
O        0.4785451831863256        1.3476343950456222        0.0143801168536997       -0.8678253524624289
N        0.5404924186819624       -0.3993562313950436       -0.0629634744235253        0.9219570073558310
O        0.6486303426128779       -0.2186203610907487       -0.2248702520432235       -0.9704818863270434
O        0.8070488272567112       -0.2384992945199677        0.4272257600165936       -0.3320651923316272
N        0.5885693417262444        0.3503328189998289        0.0103178204356262        0.9769593393400061
O        1.5184630037833906       -0.5025492114050693       -0.5479516527131791       -0.1970026432733326
O        1.5611188478373903       -0.4769559164714168        0.4533725516277728       -0.1946060569702309
N        2.7718651868284865        0.0893561069761701       -0.0802268888970510        0.1283355164991325
N        1.7853248600345750       -1.8517539230951061       -0.0545652815947489        0.1235072004109040

        RMSE         2.036752635E+00 kcal/mol

Coordinates in bohr
s                   x[bohr]                   y[bohr]                   z[bohr]                      q[e]
+       -3.7929704120078669        2.6181953336901751       -0.3470086808644042        0.0707249461841811
-       -3.0902679216800699       -0.1735483410430091        0.4845435271287736       -0.3496602100029151
+       -2.8133444228010376        0.1646255866357967       -0.4241375731674999        0.9824851761690530
+       -5.7210012166895803       -1.4055946239334696        0.0308270750700265        0.1071394941056757
-       -2.8976255944518448       -0.0504234262640216       -0.7028664682960596       -0.8194842575378962
+       -0.8678060630638377       -1.2832247699001269       -0.1483426870854283        0.3116552922920345
+       -1.3172137824174512       -3.8034367005476635        0.4000484525596324        0.0918298459672651
+       -2.2783921784056029       -2.0002562050172092        0.0497279183506826        0.5593901217632046
-       -1.7228498330525173       -1.6313268523227660        0.0302844865134644       -0.9963138680841535
+        1.2978398063944239        1.6861962723374997       -0.1093896269895010        0.9989733053171830
-        1.2511386525326389        1.8706186762968799       -0.1722367263268239       -0.8354521971080898
+        0.8529240042719443        3.2802582057146679        0.0536898905945698        0.2899344186932475
-        0.9043193348792016        2.5466599238832677        0.0271744825055728       -0.8678253524624289
+        1.0213826441951950       -0.7546739038315956       -0.1189837225677315        0.9219570073558310
-        1.2257337042002174       -0.4131326079102118       -0.4249431901243660       -0.9704818863270434
-        1.5251012533871089       -0.4506983477576440        0.8073396801719334       -0.3320651923316272
+        1.1122348617036002        0.6620330806692653        0.0194978548349855        0.9769593393400061
-        2.8694792087906422       -0.9496803741203884       -1.0354785536198894       -0.1970026432733326
-        2.9500870717029404       -0.9013160560477179        0.8567499553764802       -0.1946060569702309
+        5.2380660597968349        0.1688585698220731       -0.1516068479129599        0.1283355164991325
+        3.3737750304366769       -3.4993077663918482       -0.1031134381725602        0.1235072004109040
