21
s                      x[A]                      y[A]                      z[A]                      q[e]
N        2.0843079969666061        1.5160608703280909       -0.5405291867540853        0.0690680479201058
O        1.8407981116682106       -0.3764300416187685       -0.3291975457795862       -0.3117950550350966
N        1.9776138546678930       -0.3650241948474989        0.0279892695379462        0.5776243102962968
N        3.3180142798187817       -0.5530914093353489        0.0788726282447669        0.0604184539076988
O        1.8540556720327994       -0.2158859101099659        0.3237477339498690       -0.3968494342195521
O        0.9253251780257642       -0.1577039064674308        0.0779762676707574       -0.9828651838991298
N        0.7665625884168901       -0.0023311318121318        0.0731899907855296        0.7759263489545838
N        1.0056895300697395       -1.3444658323635379        0.3490909953512354        0.9970342621901004
O        1.0203270122489192       -1.2758804251820326        0.6208944819408773       -0.3970377457969525
O        1.0399529882363014       -1.4352941354311934        0.0927035919347481       -0.3893757401670396
N       -1.8055255376924981       -1.2445130082659697       -0.0448809557105937        0.1691966627363242
O       -1.4809468098843379       -0.9326651199229582       -0.0472527457277574       -0.6800109224217911
O       -0.4112778773293045        0.3943143197011512        0.3951291110348397       -0.9821368279659007
N       -0.2432997832261485        0.4828238723586027        0.2913545564067713        0.8921713087406896
O       -0.5352046580004945        0.4962874191045451       -0.2872492950652341       -0.3335771210350215
N       -0.7918398695971869       -0.1117891955454503        0.0732413303010285        0.9988617281482304
N       -2.2569961430773162        1.7166854897354198       -0.0878969452384424        0.0655379221577991
N       -1.0656879775278782        1.1037918138530121        0.0003849281137431        0.9908754307264420
O       -0.9761842070562737        1.0560287312996404        0.3634046527891463       -0.6595771554465193
O       -0.9546069738910363        1.1526190095996782       -0.3518295043390448       -0.5578053818499882
N        0.1773285307045802        2.2364673649862561        0.2529537966454890        0.0943160920587207

        RMSE         4.463920979E-01 kcal/mol

Coordinates in bohr
s                   x[bohr]                   y[bohr]                   z[bohr]                      q[e]
+        3.9387712753684712        2.8649398344433261       -1.0214521257816684        0.0690680479201058
-        3.4786042833128543       -0.7113496840541643       -0.6220932026962834       -0.3117950550350966
+        3.7371485672332780       -0.6897957574275274        0.0528920538783379        0.5776243102962968
+        6.2701382692156926       -1.0451912859872987        0.1490476661776590        0.0604184539076988
-        3.5036574414936519       -0.4079652444530428        0.6117945509028377       -0.3968494342195521
-        1.7486111634592025       -0.2980171921382617        0.1473537901831229       -0.9828651838991298
+        1.4485933501299735       -0.0044052006872713        0.1383090377094330        0.7759263489545838
+        1.9004777790721927       -2.5406722082027824        0.6596863740773068        0.9970342621901004
-        1.9281386115571120       -2.4110645724267288        1.1733205236762794       -0.3970377457969525
-        1.9652263311180762       -2.7123128254407325        0.1751843996028751       -0.3893757401670396
+       -3.4119487787588065       -2.3517887451923167       -0.0848127145418246        0.1691966627363242
-       -2.7985838770518607       -1.7624816434216724       -0.0892947481013589       -0.6800109224217911
-       -0.7772025496120265        0.7451460715813959        0.7466858040514637       -0.9821368279659007
+       -0.4597699566806791        0.9124048855907673        0.5505803170130522        0.8921713087406896
-       -1.0113902246902566        0.9378473016178973       -0.5428224974041173       -0.3335771210350215
+       -1.4963604887569240       -0.2112509633661513        0.1384060553331396        0.9988617281482304
+       -4.2651045766307591        3.2440654191473892       -0.1661011537650206        0.0655379221577991
+       -2.0138584127207464        2.0858642277045210        0.0007274087129635        0.9908754307264420
-       -1.8447207993335744        1.9956050827710152        0.6867352664885807       -0.6595771554465193
-       -1.8039457381061301        2.1781342551398390       -0.6648614060563712       -0.5578053818499882
+        0.3351023572614959        4.2263108083483560        0.4780133980547273        0.0943160920587207
