21
s                      x[A]                      y[A]                      z[A]                      q[e]
N -1.7210768266407206 0.4037754320568179 -1.7543665730436913 0.0707249461841811
O -1.6532957152938104 0.3986326272804930 -0.1606455249351965 -0.3496602100029151
N -1.4591685964994234 -0.0188691733802222 -0.4565791069052482 0.9824851761690530
N -3.1362855798554334 0.0408686271029779 0.1117838894972150 0.1071394941056757
O -1.5207021728286525 -0.1844339424006672 -0.3890522002949883 -0.8194842575378962
N -0.6052727087657066 0.1150850964227890 0.5401332467386930 0.3116552922920345
N -1.0963017469528586 -0.2637199945519269 1.7925975862411327 0.0918298459672651
N -1.4343906407399285 0.0851124899936950 0.7027599443097118 0.5593901217632046
O -1.0920822122630276 0.0503282056310921 0.6166871169758310 -0.9963138680841535
N 1.0714505888355081 -0.7276351665951630 -0.0394532978191581 0.9989733053171830
O 1.0897908255957818 -0.8275324450074786 -0.0313701757493193 -0.8354521971080898
N 1.1998327977089711 -1.5862438533721190 -0.1829510715503495 0.2899344186932475
O 1.0526529645547631 -1.2308142342886583 -0.1378116054251047 -0.8678253524624289
N 0.3877058152711377 0.3688161602376107 0.1931184377582945 0.9219570073558310
O 0.6054388670388646 0.2536686237745395 0.2942379209352609 -0.9704818863270434
O 0.5250076815129496 0.3450533428164933 -0.3696778722654728 -0.3320651923316272
N 0.7283381680646863 -0.2783749017003390 0.0030151595172278 0.9769593393400061
O 1.3089354786911540 0.8749765393081512 0.4651888177722768 -0.1970026432733326
O 1.0715992398521228 0.9082979034663444 -0.5106220451817954 -0.1946060569702309
N 2.5088529391812076 0.9363001687887463 -0.3771912288691966 0.1283355164991325
N 0.8185568256724066 2.2140359220392649 0.1476713772721719 0.1235072004109040
