25
s                      x[A]                      y[A]                      z[A]                      q[e]
N        1.9062557682014707        1.2770844760146842        0.3586770519710945        0.1158659338886357
O        1.8181155018866555       -0.2474801403706533       -0.3955522642277174       -0.2341991647481463
N        3.2865934513423967       -0.6591879023949361        0.0744055891713022        0.0569852111266852
N        2.0883756052175655       -0.5386891943379587        0.0593357058143595        0.3189271149812888
O        1.8066287463958139       -0.4287102011570241        0.3661803344563518       -0.2877498234141676
N        1.2979434158568763       -0.9466277172847528       -0.0353708195142526        0.5692545008206258
O        0.8047822588788750       -0.5220681235035949       -0.6226186513396186       -0.2058946535748549
O        1.0951167017343639       -0.7287865476347708        0.0273513036453263       -0.9992971180892700
N        0.6587913862423798       -0.4141941898302344       -0.1352444468569088        0.6691943173322236
N        0.7901391336606743       -2.1287779389555643       -0.3714605039791506        0.0628076875181509
N       -0.5561235110214008        1.6284355542242785       -0.0548631235860544        0.7576134719858190
O       -0.5423607115055546        1.2740485693804278       -0.1337169218995650       -0.9235083265987739
N       -0.6170854981383137        0.8572091365019695       -0.0614607544762738        0.9955526175656415
O       -0.5662058676320662        1.4287981715876563       -0.0059548903009359       -0.9936641819349231
O       -0.4742822588576422       -0.2028026449533423        0.0628382228242052       -0.9934394819660318
N       -0.4948663269429654        0.2173162555495692       -0.1075404475526915        0.8475065253219278
N       -0.4490192688436462       -0.4840448633268248       -0.0333998852179370        0.9207393412409772
O       -0.6954544619453186       -0.3045086411408502       -0.2974363730503958       -0.6738758902636315
N       -2.8398413324434406       -0.0544345999597678        0.1811501191324777        0.1207489421105395
N       -1.1572932057433336       -0.7182208075205536       -0.0366292336773464        0.4308753055723465
O       -1.3889926846865581       -0.4466732188199283        0.2715644326239172       -0.7095764258838037
N       -1.5542546384205951       -0.2464060697388828        0.0796867109696398        0.9977500474782615
O       -1.5248472514732572       -0.4436626707359049       -0.0541773068393868       -0.9963537733476465
O       -1.7588569392761628       -1.8940396019929842        0.5007393475448654       -0.1586318904925156
N       -1.7709522622688598       -1.8525559351233201        0.3311554464048820        0.3123697133706422

        RMSE         3.962275279E-01 kcal/mol

Coordinates in bohr
s                   x[bohr]                   y[bohr]                   z[bohr]                      q[e]
+        3.6023013269750011        2.4133398987415697        0.6778013957119725        0.1158659338886357
-        3.4357403630150842       -0.4676696867903941       -0.7474854476951155       -0.2341991647481463
+        6.2107615087603385       -1.2456846007414555        0.1406061857370919        0.0569852111266852
+        3.9464579409484370       -1.0179750440422697        0.1121282334498751        0.3189271149812888
-        3.4140335410672948       -0.8101448673767092        0.6919805446510533       -0.2877498234141676
+        2.4527575823107135       -1.7888671284355042       -0.0668411617149367        0.5692545008206258
-        1.5208180599083754       -0.9865657722534873       -1.1765787316337959       -0.2058946535748549
-        2.0694706416926354       -1.3772069789476424        0.0516864730639030       -0.9992971180892700
+        1.2449352938088039       -0.7827135815350331       -0.2555749645485934        0.6691943173322236
+        1.4931465636251910       -4.0228072865425997       -0.7019586189451325        0.0628076875181509
+       -1.0509211277584756        3.0772972104420169       -0.1036762779647886        0.7576134719858190
-       -1.0249132059539428        2.4076028666603646       -0.2526883607294120       -0.9235083265987739
+       -1.1661225874731294        1.6198905002289175       -0.1161439934241637        0.9955526175656415
-       -1.0699740204518322        2.7000372328555708       -0.0112531117759140       -0.9936641819349231
-       -0.8962635754044389       -0.3832414564802791        0.1187470313482410       -0.9934394819660318
+       -0.9351618266334768        0.4106682055986907       -0.2032219932837485        0.8475065253219278
+       -0.8485234431678104       -0.9147122241223645       -0.0631166356836283        0.9207393412409772
-       -1.3142184658042855       -0.5754379345915270       -0.5620732848147536       -0.6738758902636315
+       -5.3665223580733388       -0.1028664856728188        0.3423241127544411        0.1207489421105395
+       -2.1869672057080192       -1.3572406238190085       -0.0692192198355812        0.4308753055723465
-       -2.6248157643219963       -0.8440900511463597        0.5131824030745485       -0.7095764258838037
+       -2.9371155958374087       -0.4656399874569504        0.1505860595711352        0.9977500474782615
-       -2.8815436884415768       -0.8384009397800337       -0.1023802721413343       -0.9963537733476465
-       -3.3237579090929579       -3.5792161185378890        0.9462602271002393       -0.1586318904925156
+       -3.3466147569481079       -3.5008233494744951        0.6257930986589550        0.3123697133706422
