30
s                      x[A]                      y[A]                      z[A]                      q[e]
N 1.6129196028830393 1.7245190192253326 0.3165100713388748 0.2137068255539760
N 1.4901701460036665 1.0064503413985451 -0.1167589816946253 0.4524136045707061
O 1.5076519169450051 1.2894424173925942 -0.6075787416430560 -0.5303393512711568
N 1.3110120089555426 1.6885625461849163 -1.0717693220531956 0.2065219334641430
N 3.1242020948468059 1.5590590255454690 0.1664169579352885 0.0640972179527254
N 1.0896486662223042 1.7323549768811766 0.8966097307227272 0.2729192555687945
O 1.4077148919541851 1.5630509872620011 0.5291733556887215 -0.5760168259183410
O 2.7768427945653111 -0.8200818613825508 0.1315640453444932 -0.7855321009151053
O 2.4310455515671219 -1.2578049111612055 0.0577580028074393 -0.7445427033607991
N 2.6164424752005933 -1.0761407477321523 0.1123437007732825 0.9977538426035523
N 1.7773261711125556 0.0927013460755377 0.0138524795108182 0.2084365764815679
N 1.4197064664390213 -0.6044304974454041 -0.0641930254059061 0.3300899125146088
N 0.0626747001165451 -0.7348254684556663 -0.6709472420419015 0.6266498413516267
O 0.0669659427456772 -0.3551296207804217 -0.3522278270864203 -0.5811225412727979
N 0.1171649870121627 -1.8618996268439088 0.4126446705265333 0.5003074335780895
O 0.1564110710550207 -1.7179635502175443 0.2607231104926196 -0.5967490130385100
N 0.1010359605340181 -1.1284956015241885 -1.1431194567550618 0.9708061175491041
O 0.0490027986455653 -0.8622647528002253 -1.3457920421803959 -0.1568654630532827
O 0.1391757127549891 -1.2596927594378062 -1.0706655594405965 -0.7813807259506527
N -0.6693338770953763 0.2790027967541794 -0.2086990391112641 0.1400529194232831
N -0.7934697143232683 0.0305489738576182 0.4160965771103025 0.1778327620465852
N -1.0767189486070547 0.2757952469371540 0.8343643893609294 0.7120624373414439
O -1.0621902207110165 0.3305557281403661 0.9906159248889745 -0.9970019554920370
N -1.7747250751029910 -0.5738774831822925 -0.0530889368309551 0.9931708722557875
N -2.4133625876169966 -1.0067578359142280 -0.1654249272883707 0.8506195801821621
O -2.1312257289087309 -0.9217613484418052 -0.1749801749520694 -0.8089940633040810
O -2.2960703747194162 -0.8466425112207915 -0.1418267687800811 -0.9883399134133223
N -1.2496858202553078 1.3919181660372728 -1.0956342349316142 0.2529889584625400
N -1.2317125759125300 0.7543370228535407 -0.5452788334061853 0.5419198115726583
O -1.2045858364805970 1.0496412575396481 -0.8489760022725122 -0.9654652454832693
