30
s                      x[A]                      y[A]                      z[A]                      q[e]
N        1.6130654812238900        1.7248524352181862        0.3139891481879276        0.2137068255539760
N        1.4916574170042276        1.0076568833039148       -0.1174954736381252        0.4524136045707061
O        1.5043878679231732        1.2851533937820101       -0.6059527789399815       -0.5303393512711568
N        1.3129149130763231        1.6916344082632873       -1.0723487386387476        0.2065219334641430
N        3.1244687238315323        1.5589823887515795        0.1652860696884930        0.0640972179527254
N        1.0890062469060215        1.7319855777693083        0.8931869294751135        0.2729192555687945
O        1.4076515371250393        1.5616564907780950        0.5317096935088064       -0.5760168259183410
O        2.7766867883928370       -0.8206582375567132        0.1309696276141505       -0.7855321009151053
O        2.4343207587603493       -1.2555482261811028        0.0558433433054090       -0.7445427033607991
N        2.6116835534838128       -1.0740017373324755        0.1131318073785725        0.9977538426035523
N        1.7778628164189894        0.0925087878753197        0.0143447805052170        0.2084365764815679
N        1.4193044166350457       -0.6069061788179193       -0.0611123072898950        0.3300899125146088
N        0.0647689873584258       -0.7401609132886949       -0.6605235823464710        0.6266498413516267
O        0.0652420211705280       -0.3514651353423262       -0.3595867836270525       -0.5811225412727979
N        0.1191445671893825       -1.8711469379031218        0.4161550327834629        0.5003074335780895
O        0.1548518683067347       -1.7057333223020643        0.2544541150098424       -0.5967490130385100
N        0.1038209236891435       -1.1360455097022064       -1.1288718528728714        0.9708061175491041
O        0.0479169508022258       -0.8591378242873786       -1.3518390688407476       -0.1568654630532827
O        0.1366463977043177       -1.2486205893989653       -1.0811574267759907       -0.7813807259506527
N       -0.6689087224696564        0.2789803293404106       -0.2068389723888349        0.1400529194232831
N       -0.7924756242735024        0.0294405146302857        0.4172678854561694        0.1778327620465852
N       -1.0735332053082023        0.2736225924957527        0.8344727145781916        0.7120624373414439
O       -1.0638437589397218        0.3317702387924455        0.9897815694061451       -0.9970019554920370
N       -1.7718935791795909       -0.5750200132188064       -0.0497646268153123        0.9931708722557875
N       -2.4103948195273630       -1.0063142819251152       -0.1643944774911975        0.8506195801821621
O       -2.1317141302106428       -0.9192762123279143       -0.1767793652356721       -0.8089940633040810
O       -2.2956805457328344       -0.8448786826127668       -0.1427881438981625       -0.9883399134133223
N       -1.2490361135321275        1.3937903338838358       -1.0927086057257105        0.2529889584625400
N       -1.2311710892872190        0.7556040186424975       -0.5406991052590266        0.5419198115726583
O       -1.2029898952130404        1.0446609472034551       -0.8527570024733717       -0.9654652454832693

        RMSE         1.359300705E+00 kcal/mol

Coordinates in bohr
s                   x[bohr]                   y[bohr]                   z[bohr]                      q[e]
+        3.0482519819429887        3.2594987093913628        0.5933534964409763        0.2137068255539760
+        2.8188239911458308        1.9041955378768176       -0.2220342661570067        0.4524136045707061
-        2.8428810568362213        2.4285879434506565       -1.1450847971566549       -0.5303393512711568
+        2.4810496117435212        3.1967257360185277       -2.0264454270073897        0.2065219334641430
+        5.9043901756003265        2.9460497491525119        0.3123454040645885        0.0640972179527254
+        2.0579235555650870        3.2729783952268328        1.6878786755465807        0.2729192555687945
-        2.6600758852460569        2.9511030696141578        1.0047856989827659       -0.5760168259183410
-        5.2471775662395359       -1.5508193115830975        0.2474967269439431       -0.7855321009151053
-        4.6001995355737550       -2.3726422847866644        0.1055286247771418       -0.7445427033607991
+        4.9353666424468976       -2.0295691418242749        0.2137881320235512        0.9977538426035523
+        3.3596738116669989        0.1748162732824280        0.0271077064846666        0.2084365764815679
+        2.6820966360929281       -1.1468864618140024       -0.1154855236727214        0.3300899125146088
+        0.1223956475306650       -1.3987014148843731       -1.2482086700411215        0.6266498413516267
-        0.1232895518836195       -0.6641728484439653       -0.6795205393893924       -0.5811225412727979
+        0.2251506013241416       -3.5359552531259459        0.7864190376916689        0.5003074335780895
-        0.2926276211151916       -3.2233688222181889        0.4808485888643502       -0.5967490130385100
+        0.1961931118645379       -2.1468148793933142       -2.1332586326678507        0.9708061175491041
-        0.0905499137832435       -1.6235351919248564       -2.5546056058029443       -0.1568654630532827
-        0.2582242676915498       -2.3595509485717763       -2.0430914351113483       -0.7813807259506527
+       -1.2640542883975294        0.5271964168434029       -0.3908690098860317        0.1400529194232831
+       -1.4975618909781392        0.0556345096437744        0.7885220244610678        0.1778327620465852
+       -2.0286837446173922        0.5170717615547250        1.5769248897201222        0.7120624373414439
-       -2.0103733446736523        0.6269548878954665        1.8704160902034430       -0.9970019554920370
+       -3.3483935881066516       -1.0866303416406842       -0.0940415154165549        0.9931708722557875
+       -4.5549860631290651       -1.9016583889752245       -0.3106605389961047        0.8506195801821621
-       -4.0283558838666620       -1.7371802749479774       -0.3340645849277010       -0.8089940633040810
-       -4.3382075029766218       -1.5965893193757379       -0.2698304859299894       -0.9883399134133223
+       -2.3603361753819714        2.6338820073508735       -2.0649199997524725        0.2529889584625400
+       -2.3265761723344300        1.4278846545296513       -1.0217732252196547        0.5419198115726583
-       -2.2733214336458576        1.9741230841758899       -1.6114771862410364       -0.9654652454832693
