25
s                      x[A]                      y[A]                      z[A]                      q[e]
N 1.9063299822135495 1.2767502019705150 0.3586970429495371 0.1158659338886357
O 1.8174712208600927 -0.2474308585908954 -0.3949955100575234 -0.2341991647481463
N 3.2867781854778415 -0.6588483476418794 0.0742154519985542 0.0569852111266852
N 2.0884703861911165 -0.5380025103373127 0.0589439277073228 0.3189271149812888
O 1.8061157681117215 -0.4288083671864815 0.3662296346838790 -0.2877498234141676
N 1.2977805538331268 -0.9457815600209054 -0.0360653587693094 0.5692545008206258
O 0.8044553729387421 -0.5218919502960165 -0.6221045876319045 -0.2058946535748549
O 1.0943272621614653 -0.7283130299614737 0.0272870051259192 -0.9992971180892700
N 0.6588363567649735 -0.4138597073252439 -0.1353552080051287 0.6691943173322236
N 0.7901382194565658 -2.1286270591176288 -0.3718728440707669 0.0628076875181509
N -0.5550397481711684 1.6267530372563634 -0.0543963195226862 0.7576134719858190
O -0.5416368940304409 1.2728278758403582 -0.1339750250610756 -0.9235083265987739
N -0.6160058142907696 0.8566723499581677 -0.0610144198666538 0.9955526175656415
O -0.5653458496388157 1.4271215020366990 -0.0067901730356720 -0.9936641819349231
O -0.4741380792645506 -0.2025983620979166 0.0624211047453228 -0.9934394819660318
N -0.4942961397428064 0.2173997077433861 -0.1071671056947628 0.8475065253219278
N -0.4486605182287094 -0.4833143777212852 -0.0336180303294974 0.9207393412409772
O -0.6953092948361602 -0.3041462543211995 -0.2968147836372121 -0.6738758902636315
N -2.8395345317278791 -0.0547129737898275 0.1812235306391047 0.1207489421105395
N -1.1568700355514339 -0.7178687438261424 -0.0367397193427177 0.4308753055723465
O -1.3885361298763719 -0.4467954887294603 0.2711193494304058 -0.7095764258838037
N -1.5533029620001788 -0.2465830246672035 0.0795847095379350 0.9977500474782615
O -1.5240027826487885 -0.4436978584813746 -0.0538045464322714 -0.9963537733476465
O -1.7585509465205622 -1.8937214654844094 0.5007755325831575 -0.1586318904925156
N -1.7705488380527166 -1.8516433146026479 0.3303662307026344 0.3123697133706422
