21
s                      x[A]                      y[A]                      z[A]                      q[e]
N       -2.0161333216290829        1.4652031994402015        0.8626045585790107        0.0690680479201058
O       -1.7900222872914622       -0.3916939176621492        0.4211537512047356       -0.3117950550350966
N       -1.9765958947705418       -0.3451144432791706        0.0903188929019055        0.5776243102962968
N       -3.3141519766885450       -0.5367772426691529        0.1729527482114203        0.0604184539076988
O       -1.8969546437372367       -0.1635729441422343       -0.2023957752765151       -0.3968494342195521
O       -0.9323157930738422       -0.0914066715848217       -0.1902509485724456       -0.9828651838991298
N       -0.7662084386200063        0.0554924566529545       -0.1761740053974165        0.7759263489545838
N       -1.0682116466583040       -1.2662149833667011       -0.4655073206856739        0.9970342621901004
O       -1.1218165709210248       -1.1696420537437331       -0.7235684193501368       -0.3970377457969525
O       -1.0654389603162446       -1.3835992678008284       -0.2177745860447579       -0.3893757401670396
N        1.7319402925049689       -1.3061570407025478        0.1204810850641863        0.1691966627363242
O        1.4229933516382327       -0.9803434317908504        0.0898031353406002       -0.6800109224217911
O        0.4427927077254457        0.4076922602671977       -0.4584454367603334       -0.9821368279659007
N        0.2768545340826690        0.4997848855821595       -0.3545069449052817        0.8921713087406896
O        0.5567917531584123        0.4773354475288512        0.2297047599188123       -0.3335771210350215
N        0.7930988708830701       -0.1275371321025184       -0.1495845763604892        0.9988617281482304
N        2.3446359796889320        1.6165485147974072        0.1043692158705526        0.0655379221577991
N        1.1249365322908682        1.0700510000436507       -0.0211610272256283        0.9908754307264420
O        1.0332213395066436        1.0513483747618768       -0.3862830516327581       -0.6595771554465193
O        1.0163608130788035        1.1003530286429697        0.3339040247040697       -0.5578053818499882
N       -0.0589911260624680        2.2789230067556985       -0.1924895477231916        0.0943160920587207

        RMSE         7.161924648E+00 kcal/mol

Coordinates in bohr
s                   x[bohr]                   y[bohr]                   z[bohr]                      q[e]
+       -3.8099398102885482        2.7688327650865454        1.6300863702857742        0.0690680479201058
-       -3.3826518814464541       -0.7401942293890909        0.7958652464861551       -0.3117950550350966
+       -3.7352249018205850       -0.6521717797374825        0.1706779715391584        0.5776243102962968
+       -6.2628395740860467       -1.0143619790231149        0.3268333267648506        0.0604184539076988
-       -3.5847247490788030       -0.3091080659636342       -0.3824725842223222       -0.3968494342195521
-       -1.7618215113485740       -0.1727335753349813       -0.3595221879104841       -0.9828651838991298
+       -1.4479241040064768        0.1048655451029242       -0.3329206206260464        0.7759263489545838
+       -2.0186274562085234       -2.3927995345142046       -0.8796813454915933        0.9970342621901004
-       -2.1199260820409753       -2.2103031463936818       -1.3673461456021792       -0.3970377457969525
-       -2.0133878383902335       -2.6146236835275474       -0.4115343247095428       -0.3893757401670396
+        3.2728928184797126       -2.4682790837662885        0.2276762540692998        0.1691966627363242
-        2.6890677129435665       -1.8525805949761542        0.1697033310011574       -0.6800109224217911
-        0.8367569479509871        0.7704267153738760       -0.8663363189429266       -0.9821368279659007
+        0.5231792460074743        0.9444565553935582       -0.6699210354437497        0.8921713087406896
-        1.0521839223829179        0.9020332658023744        0.4340790859605978       -0.3335771210350215
+        1.4987396563788424       -0.2410102505000953       -0.2826738819139579        0.9988617281482304
+        4.4307198655065845        3.0548339614827111        0.1972292339241310        0.0655379221577991
+        2.1258219545519874        2.0221033303547622       -0.0399885459897942        0.9908754307264420
-        1.9525053586462369        1.9867604907451462       -0.7299691744919982       -0.6595771554465193
-        1.9206435813665754        2.0793658654532656        0.6309871588787966       -0.5578053818499882
+       -0.1114770720904220        4.3065403437731504       -0.3637525272100766        0.0943160920587207
