25
s                      x[A]                      y[A]                      z[A]                      q[e]
N 1.4484954120100326 0.0036250193641382 -0.0789243472191432 0.1158659338886357
O 0.2472131815687787 -0.4395307141534133 0.2297188347208746 -0.2341991647481463
N -0.8529793204859996 -0.0061598235080986 0.2334407058678903 0.0569852111266852
N -0.1012584545212750 0.0323624077490260 0.3764164573878480 0.3189271149812888
O 0.1804301996916929 0.3394226849590097 0.2604270379041935 -0.2877498234141676
N -0.0284013190092575 0.1146444467682015 -0.5395755246274457 0.5692545008206258
O 0.2918462104283663 0.4966330350790450 -0.4672267254448810 -0.2058946535748549
O 0.2766228274174229 0.1672301979059260 -0.5797011728103951 -0.9992971180892700
N 0.1190372821583523 0.0187214475690842 -0.3630082267290942 0.6691943173322236
N 1.0581273365499593 0.0207635743097118 -0.3503313852159354 0.0628076875181509
N -1.0178288692082171 -0.0042167399705663 0.3255257067957427 0.7576134719858190
O -0.9904950534925762 0.0748195895396812 -0.0267282234411483 -0.9235083265987739
N -1.1068438009595325 0.0104902395965981 -0.4423360009385190 0.9955526175656415
O -1.0129978763627392 -0.0520653858777593 0.1280690185062411 -0.9936641819349231
O -0.3197338218715340 -0.1166640596514580 0.5014397293197123 -0.9934394819660318
N -0.6979756381474856 0.0532997344394586 0.6669816158245805 0.8475065253219278
N -0.0473524974883150 -0.0192614404130662 0.3970975440578993 0.9207393412409772
O -0.3174761066093879 0.2559769155660601 0.2756966971885704 -0.6738758902636315
N -0.4470550738842382 0.0224535560692049 0.3090341396989705 0.1207489421105395
N -0.1498049171941098 0.0760038729327380 -0.3356030994494308 0.4308753055723465
O 0.2402564951008669 -0.4851536868665465 -0.4504721525112913 -0.7095764258838037
N 0.0254649144993656 0.0109717068941104 0.4340864314622886 0.9977500474782615
O -0.1268860953685358 -0.1291464727591718 0.5760179914133770 -0.9963537733476465
O -1.0542491552612132 0.3698076897312762 0.0828594498530994 -0.1586318904925156
N -1.0461124059693847 0.2030565087010278 0.0346768891694449 0.3123697133706422
