21
s                      x[A]                      y[A]                      z[A]                      q[e]
N       -2.1055199144516004        1.6034483507506410       -0.2328112166252413        0.0690680479201058
O       -1.8670610677604771       -0.2095088938268926        0.3745533491584155       -0.3117950550350966
N       -1.9873555506589244       -0.3332720639279278        0.0393902485612327        0.5776243102962968
N       -3.3228220341895840       -0.5433191372548809        0.0265085828825468        0.0604184539076988
O       -1.8370888411204442       -0.3206282577043982       -0.2838735663369893       -0.3968494342195521
O       -0.9295574752834008       -0.1062072746975355        0.1276096612065055       -0.9828651838991298
N       -0.7649236376531150        0.0447644722042305        0.1175777218169336        0.7759263489545838
N       -1.0020694448368934       -1.3144484389883335        0.2011845145573604        0.9970342621901004
O       -1.0733816666309608       -1.3398337011011274       -0.2111076889711042       -0.3970377457969525
O       -1.0588886104112774       -1.3486200792598815        0.4445192155561311       -0.3893757401670396
N        1.7529834773277524       -1.2968851627271409       -0.1248502395689971        0.1691966627363242
O        1.4202842447771646       -0.9664805995983471       -0.0786949077384655       -0.6800109224217911
O        0.3770898940923741        0.4195793543060424       -0.3338520676417211       -0.9821368279659007
N        0.2347363168604124        0.4936482654702810       -0.2187727293918765        0.8921713087406896
O        0.5926084311589246        0.4904526757433196        0.3207791491534121       -0.3335771210350215
N        0.7871164890475399       -0.1246645563538994       -0.0825075258431007        0.9988617281482304
N        2.3356411563471515        1.6265803614418928       -0.0273574880334977        0.0655379221577991
N        1.1148144920442657        1.0494097030733831        0.0090286929947008        0.9908754307264420
O        0.9798205322277828        1.0700714081131819       -0.3314319446123848       -0.6595771554465193
O        1.0587097798947767        1.1184845829957961        0.3737836846478754       -0.5578053818499882
N       -0.0838460971115495        2.2706947229429004       -0.0008145922190168        0.0943160920587207

        RMSE         5.751425393E+00 kcal/mol

Coordinates in bohr
s                   x[bohr]                   y[bohr]                   z[bohr]                      q[e]
+       -3.9788559900109206        3.0300782392357535       -0.4399494383563403        0.0690680479201058
-       -3.5282340775721619       -0.3959144301804493        0.7078032492823856       -0.3117950550350966
+       -3.7555577046537980       -0.6297929260898566        0.0744367817944390        0.5776243102962968
+       -6.2792236082549815       -1.0267243681317559        0.0500939616220128        0.0604184539076988
-       -3.4715947778523488       -0.6058995951440264       -0.5364432946338946       -0.3968494342195521
-       -1.7566090461576620       -0.2007026617096089        0.2411473106427557       -0.9828651838991298
+       -1.4454961820533287        0.0845925926166652        0.2221896926892723        0.7759263489545838
+       -1.8936368094312994       -2.4839475557235140        0.3801836331965948        0.9970342621901004
-       -2.0283973780199918       -2.5319187487396553       -0.3989357151337211       -0.3970377457969525
-       -2.0010094710439268       -2.5485225970944048        0.8400195749044407       -0.3893757401670396
+        3.3126586746021642       -2.4507577737241051       -0.2359327594832026        0.1691966627363242
-        2.6839482429315491       -1.8263836388091430       -0.1487118230938716       -0.6800109224217911
-        0.7125966245124848        0.7928900675348548       -0.6308889742606744       -0.9821368279659007
+        0.4435873505648683        0.9328600240461314       -0.4134205422695447        0.8921713087406896
-        1.1198676345275966        0.9268212346528478        0.6061847386573362       -0.3335771210350215
+        1.4874345931317767       -0.2355818690605733       -0.1559166271325943        0.9988617281482304
+        4.4137221128437440        3.0737914041733818       -0.0516981598638004        0.0655379221577991
+        2.1066940706550472        1.9830969322067142        0.0170617570308242        0.9908754307264420
-        1.8515924580108349        2.0221418960169255       -0.6263156045453155       -0.6595771554465193
-        2.0006715303448663        2.1136295374089604        0.7063487941489802       -0.5578053818499882
+       -0.1584461602293692        4.2909911408844241       -0.0015393561978707        0.0943160920587207
