23
s                      x[A]                      y[A]                      z[A]                      q[e]
N 1.7884036627246083 1.3932017355325410 -0.3404162187135482 0.2856065124296451
O 1.7323854640897234 1.1487581059561716 -0.3208112654734402 -0.2980193526493612
N 2.6573959413457713 -0.3816865043095705 -0.2199841316336578 0.9235469647741466
O 2.5741308578172331 -0.3220949324499016 -0.2022824361101523 -0.9987019282037162
O 1.5177992085652601 -0.0155403440028632 -0.0459512773353410 -0.9994297377915048
N 1.6550255993392811 -0.4085081704416589 -0.0349664455325490 0.3910255639585828
N 2.0462027594981560 0.1320337389699469 -0.1606240356991293 0.3788084070601841
N 1.2536008733991815 0.4933649445916987 -0.1035834425284524 0.3521750120262308
N 1.0975904007751800 -0.5655422709521550 0.2554720053322479 0.5091785922378865
N 0.6528518347878250 -0.0344030141875650 0.3457873457477532 0.9946620798872232
O 0.7970471509703299 -0.1247010535231322 0.3957990806845960 -0.5088390984708862
O 0.8251423943138190 -0.3620818900886822 0.2670498495854364 -0.9513197152299744
N 0.6530091230672455 -1.8396355650912359 0.2974474917118904 0.0534150746794947
N 0.2081585335245818 -1.7981829244398908 0.3558079940038575 0.0449830180293293
O 0.8955655230630397 0.0170693520513598 0.0775900719728593 -0.1594766348608674
O -0.4982374158889685 1.2015278049486211 0.7356913100573662 -0.2085098172073890
N -0.5291306660668929 1.2464578665640347 0.4240442615876887 0.7433887315217406
O -0.4575919378435996 1.2941955539862122 0.2787204318226265 -0.4563903046399361
N -0.6663762453341303 -0.2001766041396874 0.0529635003926252 0.2740207269363132
N -1.3386907782583206 0.1094356305019837 -0.0745279405474197 0.2947455612059413
O -1.7379885472194989 -0.4454368279179452 -0.3227423287093426 -0.8294346811293033
N -1.9152179773411895 -0.2724402422379970 -0.2909810003380374 0.8271270632704910
O -2.0062644548596231 0.0475816810430045 -0.2027319693017199 -0.6625620378342709
