25
s                      x[A]                      y[A]                      z[A]                      q[e]
N 1.7589132061964230 0.8276712720095268 -1.4079806061914548 0.1158659338886357
O 1.7898625422058847 -0.4025425013742494 -0.2630064080858374 -0.2341991647481463
N 3.3776988253942233 -0.1822463745349935 0.0370741125905648 0.0569852111266852
N 2.1755881534562773 -0.1401274752815043 0.1154987935844645 0.3189271149812888
O 1.9322184791989661 0.2163479560933982 0.1971351739245237 -0.2877498234141676
N 1.4779355114459696 -0.3206774057954816 0.4745693719980341 0.5692545008206258
O 0.7127957200753021 -0.4179911469070651 0.8875603965973000 -0.2058946535748549
O 1.2067320356100935 -0.3599990852105832 0.3375432403176734 -0.9992971180892700
N 0.6487718862453199 -0.3801430561505831 0.3774066770911221 0.6691943173322236
N 1.0756230290343523 -1.0634665258973466 1.6488902168229043 0.0628076875181509
N -1.4079475443929179 -1.3351786532240586 -0.2760129098842572 0.7576134719858190
O -1.2304520307805109 -1.0562142494079456 -0.1271902367350520 -0.9235083265987739
N -1.0505187750278793 -0.6673719779982039 -0.1234258226498506 0.9955526175656415
O -1.3030132466012463 -1.1587396881694858 -0.2849306502027339 -0.9936641819349231
O -0.3435329996125041 0.1477228044251939 -0.0122210682215515 -0.9934394819660318
N -0.6188176293815099 -0.2075848707275090 0.0678219135066985 0.8475065253219278
N -0.1941939936132938 0.3501239090010645 0.1430423796814422 0.9207393412409772
O -0.5515116118955210 0.3220963340739592 0.3264394069590428 -0.6738758902636315
N -2.3867891894781006 1.3479330427319576 -0.2268098363475952 0.1207489421105395
N -0.6696384081249438 0.9228145400907222 0.2133240730147376 0.4308753055723465
O -0.9531987832902767 0.8930128911884174 -0.1628444494668117 -0.7095764258838037
N -1.2273155017493218 0.7790459249984610 -0.0335762966777469 0.9977500474782615
O -1.1232127601626722 0.9012658304741089 0.1456933728506165 -0.9963537733476465
O -0.4627142326576190 2.3135475935245302 -0.0274946787166583 -0.1586318904925156
N -0.5258293006202681 2.2510674899462102 0.1261504051491117 0.3123697133706422
