30
s                      x[A]                      y[A]                      z[A]                      q[e]
N        2.9103073941843625       -1.1898323601600438       -0.1068824447933347        0.2137068255539760
N        2.1613612702702740       -0.8122727343502421        0.1070042890989045        0.4524136045707061
O        2.1949965851120736       -1.0829855143130935        0.5225366800372510       -0.5303393512711568
N        2.0082674809154493       -1.6208397503637315        0.9579728797183764        0.2065219334641430
N        3.6838779969467184       -0.1537576456639478        0.6951214049348784        0.0640972179527254
N        2.8770390006288955       -1.4023577756945920       -0.8583900178382750        0.2729192555687945
O        2.8015422020947822       -1.1598603484434371       -0.4720537096710764       -0.5760168259183410
O        1.9095704105984470        1.4528635896650492        0.1368704831001817       -0.7855321009151053
O        1.3637959501838202        1.5493891967464766       -0.0853120085227021       -0.7445427033607991
N        1.6593597250283125        1.5249703692991246        0.0326478765660974        0.9977538426035523
N        1.8291802881140704        0.0751491690407571       -0.0562219419841789        0.2084365764815679
N        1.1370523936337549        0.3394628166498960       -0.2675749609337051        0.3300899125146088
N        0.2570241545757553       -0.9033699826259212       -0.8411896604858907        0.6266498413516267
O        0.4534958958802524       -0.7977374669674989       -0.7684725042786134       -0.5811225412727979
N        0.2166270318535853       -1.4967832925876450       -1.0245736465523529        0.5003074335780895
O        0.1907214482263263       -1.3553734469101191       -0.9968196012604427       -0.5967490130385100
N        0.0278138119256671        0.0982432403064187       -1.6785987633349415        0.9708061175491041
O       -0.0713818800822286        0.4304513424073049       -1.5527084972052423       -0.1568654630532827
O        0.0423005320837295       -0.0411446239644226       -1.6340417274816981       -0.7813807259506527
N       -0.7214444324365309        0.3714231025705478        0.0678539095127278        0.1400529194232831
N       -0.7673381196754600       -0.2464765663280021        0.3515143702381689        0.1778327620465852
N       -1.0017189660038754       -0.3848121643853829        0.8389609949419249        0.7120624373414439
O       -0.9686028795233180       -0.4691572846214324        1.0095119953812903       -0.9970019554920370
N       -1.7787906920126624       -0.4892305953302731       -0.3604992529901612        0.9931708722557875
N       -2.4091025932026762       -0.8179669269378933       -0.6979744932032863        0.8506195801821621
O       -2.1289416691995862       -0.7255972373467048       -0.6559175246622294       -0.8089940633040810
O       -2.2961061907773241       -0.7170275939697194       -0.5700370553928324       -0.9883399134133223
N       -1.4870408197821592        1.7085482057211576        0.2188368732697329        0.2529889584625400
N       -1.3673832132175041        0.8748073075029317        0.1736703338274000        0.5419198115726583
O       -1.3982419911785238        1.3095280508357707        0.1675382219714622       -0.9654652454832693

        RMSE         7.768726732E-01 kcal/mol

Coordinates in bohr
s                   x[bohr]                   y[bohr]                   z[bohr]                      q[e]
+        5.4996839159032831       -2.2484572959095828       -0.2019785482787687        0.2137068255539760
+        4.0843808589824544       -1.5349730070987186        0.2022088006462421        0.4524136045707061
-        4.1479423921770024       -2.0465460198898358        0.9874512157763912       -0.5303393512711568
+        3.7950755255933051       -3.0629432214428878        1.8103063782838855        0.2065219334641430
+        6.9615204938294672       -0.2905598400000498        1.3135890792703897        0.0640972179527254
+        5.4368157634495047       -2.6500721259689994       -1.6221220425411993        0.2729192555687945
-        5.2941474908711648       -2.1918184023361831       -0.8920522277847177       -0.5760168259183410
-        3.6085650933091173        2.7455142821164853        0.2586477277184474       -0.7855321009151053
-        2.5772008368559476        2.9279212435939357       -0.1612163313206310       -0.7445427033607991
+        3.1357354239185202        2.8817763474136280        0.0616955452876766        0.9977538426035523
+        3.4566497786216361        0.1420113480427653       -0.1062440725914772        0.2084365764815679
+        2.1487176142640649        0.6414917532448091       -0.5056433941947802        0.3300899125146088
+        0.4857052597755160       -1.7071218571225875       -1.5896180778851883        0.6266498413516267
-        0.8569830422328160       -1.5075053325850338       -1.4522025680312982       -0.5811225412727979
+        0.4093657615741053       -2.8285104921516613       -1.9361635873455760        0.5003074335780895
-        0.3604113033984413       -2.5612846123778805       -1.8837160428703135       -0.5967490130385100
+        0.0525604870445037        0.1856528178566709       -3.1720919372352410        0.9708061175491041
-       -0.1348922036756852        0.8134351474854772       -2.9341938123891094       -0.1568654630532827
-        0.0799364205993907       -0.0777520708277076       -3.0878913425104058       -0.7813807259506527
+       -1.3633323920414073        0.7018879405261668        0.1282253055206531        0.1400529194232831
+       -1.4500588918104023       -0.4657732067031647        0.6642658889129234        0.1778327620465852
+       -1.8929745004241254       -0.7271896004330305        1.5854065103818482        0.7120624373414439
-       -1.8303941666288952       -0.8865787776979749        1.9077011916350868       -0.9970019554920370
+       -3.3614272424175375       -0.9245118373689036       -0.6812448565835386        0.9931708722557875
+       -4.5525441092832999       -1.5457334715949915       -1.3189806347094375        0.8506195801821621
-       -4.0231166918622554       -1.3711800559740925       -1.2395044824998442       -0.8089940633040810
-       -4.3390118555373656       -1.3549857769987466       -1.0772139160548866       -0.9883399134133223
+       -2.8100998867645721        3.2286881809553676        0.4135417566313181        0.2529889584625400
+       -2.5839797815295893        1.6531462237297099        0.3281893670506202        0.5419198115726583
-       -2.6422944204422305        2.4746493696842227        0.3166013550722248       -0.9654652454832693
