25
s                      x[A]                      y[A]                      z[A]                      q[e]
N        1.7303029053372185        0.6082676116484514       -1.5420635807117395        0.1158659338886357
O        1.7871812776746063       -0.3829588778456103       -0.1845433134741472       -0.2341991647481463
N        3.3815242902942408       -0.0970660792199155        0.0398281574248671        0.0569852111266852
N        2.1813991792539849       -0.0698544132090746        0.1197233850438716        0.3189271149812888
O        1.9235520959726709        0.3187010881240752        0.1565596886381783       -0.2877498234141676
N        1.4860629683576032       -0.1739139296343660        0.5397480389562066        0.5692545008206258
O        0.7209075500080286       -0.2938244734858595        0.9214591184227512       -0.2058946535748549
O        1.2207409032420178       -0.2071649215632877        0.3829326849074087       -0.9992971180892700
N        0.6701588521252370       -0.2862281323090534        0.4249516601767102        0.6691943173322236
N        1.1145688176849056       -0.7060050864402546        1.8255604175226436        0.0628076875181509
N       -1.2923744284611991       -1.3974119985080959       -0.2438445547768688        0.7576134719858190
O       -1.1418878867357087       -1.1139082251334518       -0.1002491489214705       -0.9235083265987739
N       -0.9872880451032744       -0.7040674001322998       -0.1064133178279675        0.9955526175656415
O       -1.2020574563594506       -1.2248201814485713       -0.2532845192395567       -0.9936641819349231
O       -0.3523966896833707        0.1591391652677510       -0.0060442732942842       -0.9934394819660318
N       -0.5982258738877473       -0.2107021779691252        0.0785530640994779        0.8475065253219278
N       -0.2248653659111875        0.3708623006088421        0.1456183715473588        0.9207393412409772
O       -0.5801973510843703        0.3275478528783464        0.3157037008198495       -0.6738758902636315
N       -2.4765069704528586        1.1927467465988943       -0.2974696575874072        0.1207489421105395
N       -0.7443738902397700        0.9109140068770974        0.1855203641165653        0.4308753055723465
O       -1.0127163946087967        0.8468177996757670       -0.1894357314745824       -0.7095764258838037
N       -1.2788109059342665        0.7191781751710394       -0.0632240257306164        0.9977500474782615
O       -1.1869990867464992        0.8537243837216588        0.1108024431938929       -0.9963537733476465
O       -0.6284372868558327        2.3047165446042404       -0.1057846393254866       -0.1586318904925156
N       -0.7067775182317562        2.2413159770477518        0.0444719076389894        0.3123697133706422

        RMSE         6.757618423E-01 kcal/mol

Coordinates in bohr
s                   x[bohr]                   y[bohr]                   z[bohr]                      q[e]
+        3.2697986051713253        1.1494591970019150       -2.9140778355880204        0.1158659338886357
-        3.3772831513508046       -0.7236873964408628       -0.3487363207506496       -0.2341991647481463
+        6.3901547952392681       -0.1834283057976336        0.0752643096146185        0.0569852111266852
+        4.1222470190885190       -0.1320057096197146        0.2262444085456511        0.3189271149812888
-        3.6349866494387197        0.6022577724399024        0.2958549338131087       -0.2877498234141676
+        2.8082520153807726       -0.3286496964110959        1.0199759703801732        0.5692545008206258
-        1.3623178312899675       -0.5552477838451197        1.7413053696248117       -0.2058946535748549
-        2.3068659772714279       -0.3914849645565666        0.7236378989612409       -0.9992971180892700
+        1.2664166910678896       -0.5408927794654181        0.8030422542926062        0.6691943173322236
+        2.1062298133998092       -1.3341562565522613        3.4498092145942403        0.0628076875181509
+       -2.4422337213367569       -2.6407259616089847       -0.4607994257124814        0.7576134719858190
-       -2.1578553719082980       -2.1049814743970439       -0.1894434357718153       -0.9235083265987739
+       -1.8657040121838442       -1.3304945601131775       -0.2010920267961575        0.9955526175656415
-       -2.2715593795838371       -2.3145746958713627       -0.4786383731810163       -0.9936641819349231
-       -0.6659332310195207        0.3007294381900200       -0.0114220211536160       -0.9934394819660318
+       -1.1304830628105160       -0.3981694103991208        0.1484437774635468        0.8475065253219278
+       -0.4249339566730051        0.7008281784079234        0.2751788410596687        0.9207393412409772
-       -1.0964140922655623        0.6189757349218282        0.5965935313429915       -0.6738758902636315
+       -4.6799199219431848        2.2539646881027586       -0.5621361834739178        0.1207489421105395
+       -1.4066627874947712        1.7213779968411227        0.3505826788755225        0.4308753055723465
-       -1.9137566285717023        1.6002537195500104       -0.3579816508627321       -0.7095764258838037
+       -2.4166023784643764        1.3590497864797997       -0.1194760931797638        0.9977500474782615
-       -2.2431031851194425        1.6133052718592025        0.2093862716680563       -0.9963537733476465
-       -1.1875743591833023        4.3552830661135253       -0.1999039966055057       -0.1586318904925156
+       -1.3356159410887960        4.2354733572331744        0.0840397257143458        0.3123697133706422
