25
s                      x[A]                      y[A]                      z[A]                      q[e]
N 1.7311477947892662 0.6101801571057004 -1.5409190170523694 0.1158659338886357
O 1.7877382226378873 -0.3863040109620511 -0.1852122995871756 -0.2341991647481463
N 3.3815262724981396 -0.0952823586680526 0.0403568301984895 0.0569852111266852
N 2.1818774500773701 -0.0644056382659692 0.1208817647905169 0.3189271149812888
O 1.9226844762672093 0.3129392696072837 0.1549103433913828 -0.2877498234141676
N 1.4869621596985567 -0.1682135444044163 0.5392209532849633 0.5692545008206258
O 0.7207394289068494 -0.2970744882187188 0.9238419162388423 -0.2058946535748549
O 1.2209870345544658 -0.2124089164922607 0.3838254503456734 -0.9992971180892700
N 0.6704696018791743 -0.2837272199427323 0.4237359241283365 0.6691943173322236
N 1.1144012970615584 -0.7041479031381366 1.8234372419150620 0.0628076875181509
N -1.2931683684813018 -1.3998828650811104 -0.2454287660738225 0.7576134719858190
O -1.1433213640440727 -1.1137875823433916 -0.0990142021934110 -0.9235083265987739
N -0.9890637270042189 -0.7059530173677948 -0.1076535101871227 0.9955526175656415
O -1.2037762172601245 -1.2249440027147771 -0.2526339925007355 -0.9936641819349231
O -0.3535031871414616 0.1586830365314384 -0.0069203473635953 -0.9934394819660318
N -0.5991554915759815 -0.2110834103326954 0.0780386546556475 0.8475065253219278
N -0.2239032679894352 0.3727069471316993 0.1464161311548846 0.9207393412409772
O -0.5814773134926803 0.3267038422018610 0.3161612467749617 -0.6738758902636315
N -2.4766959257457786 1.1917117108359792 -0.2974403590120557 0.1207489421105395
N -0.7429087247356279 0.9116024603530101 0.1867872417302640 0.4308753055723465
O -1.0138520941118347 0.8478581714090270 -0.1910659934199871 -0.7095764258838037
N -1.2792854682534041 0.7188391103893780 -0.0629268429502772 0.9977500474782615
O -1.1887040212124671 0.8547376891134548 0.1103310193934779 -0.9963537733476465
O -0.6302476836196480 2.3057849906483696 -0.1078480230650387 -0.1586318904925156
N -0.7035465494034718 2.2412352425608320 0.0467132509095242 0.3123697133706422
