21
s                      x[A]                      y[A]                      z[A]                      q[e]
N 0.0271984565191016 -0.0450243346213320 0.3788074081983305 0.0707249461841811
O 0.1028048081611548 0.2923703842674948 0.3139069444516584 -0.3496602100029151
N 0.3753596305454916 -0.1822764355217217 0.3124058910728148 0.9824851761690530
N 0.0336457010611658 -0.0110070913387004 -0.1884913504090528 0.1071394941056757
O 0.2563743936134174 -0.3289978021751241 0.3210080346028981 -0.8194842575378962
N 0.1011331318646144 0.1261682519451059 0.2906848283010081 0.3116552922920345
N 0.0297640749502891 -0.0163093213716106 0.2435969480872991 0.0918298459672651
N 0.0909411480529779 0.0397428669405849 -0.5502758555222816 0.5593901217632046
O 0.0474153226095592 0.0585278311054001 -0.1987845403567869 -0.9963138680841535
N 0.2263186640735180 0.0842525704631269 -0.4262998675833646 0.9989733053171830
O 0.2005791463316105 0.0998850449867650 -0.3289609996468599 -0.8354521971080898
N 0.0344599067506495 0.0064671299408491 0.4289356775711889 0.2899344186932475
O 0.0348283587134311 -0.0024864713939497 0.0417106334445907 -0.8678253524624289
N 0.0011218927728883 0.0786092634955533 -0.3512905158974376 0.9219570073558310
O 0.1206948398162111 0.2419184635780347 -0.1782909986819024 -0.9704818863270434
O 0.2581489303297532 -0.4185797386499197 -0.1999453221352736 -0.3320651923316272
N 0.0923177418099371 0.0130189249724066 0.3959823597016034 0.9769593393400061
O 0.1996733732285259 -0.5144377957588983 -0.0956064304444770 -0.1970026432733326
O 0.2308439914601104 0.4896804246577978 -0.0748287649621872 -0.1946060569702309
N 0.0218175340267492 -0.0000566462349802 0.1847041146048669 0.1283355164991325
N 0.0371600737975827 0.0045553282255526 -0.1492128205201012 0.1235072004109040
