21
s                      x[A]                      y[A]                      z[A]                      q[e]
N 1.6151600225226115 -0.0411232516397401 0.2725186917789751 0.0690680479201058
O 0.2357816820716860 -0.1887857129752796 0.3986900666489221 -0.3117950550350966
N 0.1215846393840528 0.1796068081350418 0.3927960697998156 0.5776243102962968
N -0.7217931673375597 0.4202335182118394 0.3450467457106978 0.0604184539076988
O 0.2963963404607751 0.4716545978635370 0.2892253245298305 -0.3968494342195521
O 0.4234059643859334 0.1222728078809180 -0.0866443053011218 -0.9828651838991298
N 0.2430595981835317 0.1330287646959797 0.0115701058890060 0.7759263489545838
N 0.7330811304262346 0.0423126396777712 0.3778239893773250 0.9970342621901004
O 0.7441907719725385 0.3251325924524122 0.4136145865018903 -0.3970377457969525
O 0.6122034203921243 -0.2110546974828968 0.3853611605358936 -0.3893757401670396
N -1.0330555583995835 -0.0718243643626673 -0.5239505224179579 0.1691966627363242
O -0.0481758759659970 0.1803251933362730 -0.6915057982123584 -0.6800109224217911
O -0.8991593818775666 -0.1893804498523297 0.5120488062947366 -0.9821368279659007
N -0.7601920529302327 -0.0803187660511624 0.5102436433593823 0.8921713087406896
O -1.0418916803326383 0.4925994536321073 0.5605184836534911 -0.3335771210350215
N -0.4542645463220919 0.1071852533637374 0.2081236032680198 0.9988617281482304
N -0.2267687996747321 -0.6491236504710858 0.5563896005946379 0.0655379221577991
N 0.9211435371669210 -0.3218023726725235 -0.0896176512878828 0.9908754307264420
O 1.1037070358162171 -0.6576357655333777 -0.1214548416880988 -0.6595771554465193
O 0.9653656585030427 0.0026458867174927 0.1170612683246030 -0.5578053818499882
N -0.3153464683468734 0.0967719606787947 0.9344928078010640 0.0943160920587207
