21
s                      x[A]                      y[A]                      z[A]                      q[e]
N -0.1188353385312276 0.1159349677505121 0.1092757385606898 0.0690680479201058
O 0.7993358621647682 -0.6086104320115333 -0.3189792345598911 -0.3117950550350966
N 0.8585199471332977 -0.2939791068397861 -0.1038208587652564 0.5776243102962968
N 1.7391329150947510 -0.5701095867857753 0.8890537652717521 0.0604184539076988
O 0.8618453155386082 0.0494187688577748 -0.1967981811927614 -0.3968494342195521
O 0.2236820677715220 -0.1281213596247658 0.4168422595084368 -0.9828651838991298
N 0.1501123287808573 -0.0811510538771552 0.2306491961100836 0.7759263489545838
N -0.5568265515085459 -0.1335233869515635 0.0561543909787687 0.9970342621901004
O -0.4760815024292651 0.1357585295936265 0.1047239610427953 -0.3970377457969525
O -0.5220310991598029 -0.4119404376710367 0.0444727970563503 -0.3893757401670396
N -0.5539983388720028 0.5565650500164910 -1.0540729703311469 0.1691966627363242
O -0.3186770088579707 0.4595871169132338 -0.6228869208109743 -0.6800109224217911
O -0.3222662523801853 0.5827395377101265 -0.7669472092861329 -0.9821368279659007
N -0.2397236907957672 0.4386521141171055 -0.7066548557831109 0.8921713087406896
O 0.7764838275280744 -0.0260586612299276 0.5926328160343892 -0.3335771210350215
N 0.1832867694678617 0.3853769762492267 0.2268870134151782 0.9988617281482304
N -0.2651282414738790 1.2150584889939486 -0.0264792915418444 0.0655379221577991
N 0.9193187249592613 0.7271803827514606 -0.4750633512389425 0.9908754307264420
O 1.0325524564156998 0.4949918011772367 -0.1915255404639335 -0.6595771554465193
O 1.0097081322722263 -1.0011640546177825 0.6340316678460240 -0.5578053818499882
N -0.0167141424351313 -0.3868999500010646 -0.1049119866992273 0.0943160920587207
