21
s                      x[A]                      y[A]                      z[A]                      q[e]
N       -2.0680404052540173        1.6462373470974154        0.0287824270369397        0.0690680479201058
O       -1.8734330613706709       -0.2484440871828085        0.4003599719200448       -0.3117950550350966
N       -1.9641732541949943       -0.3078316438369595        0.0589966642715076        0.5776243102962968
N       -3.3348210623045538       -0.4896079616341011        0.0887315022854838        0.0604184539076988
O       -1.8871770322611683       -0.2633889650746559       -0.2677346134660272       -0.3968494342195521
O       -0.9733745173131912       -0.1637992830958582        0.0773954019668241       -0.9828651838991298
N       -0.7292692783061278       -0.0084841045300213        0.0821640700188911        0.7759263489545838
N       -0.9862849027687861       -1.3490714330391405        0.0128506662795245        0.9970342621901004
O       -1.0863791883709255       -1.3800350821716174       -0.2832567283846456       -0.3970377457969525
O       -1.1096319526894953       -1.3972027158981253        0.2677341694200421       -0.3893757401670396
N        1.7698564356447366       -1.3283020973845501       -0.1991752518928408        0.1691966627363242
O        1.3939480823265711       -0.9716211213617926       -0.1509971226398568       -0.6800109224217911
O        0.3307439800299707        0.3913908379313065       -0.3779801214652687       -0.9821368279659007
N        0.2627142038522886        0.4509615720643383       -0.2449742310328193        0.8921713087406896
O        0.5719852417985245        0.4484366804102554        0.2838787685759461       -0.3335771210350215
N        0.8267808631133896       -0.1770980670016060       -0.1241890306675879        0.9988617281482304
N        2.2782285502599322        1.6614557434260746        0.2542905448203306        0.0655379221577991
N        1.1038300702352291        1.0440152584131621        0.1590787619369107        0.9908754307264420
O        0.9370102758735379        1.1180438690250318       -0.1852834345288566       -0.6595771554465193
O        0.9779114848259101        1.0690320375615907        0.5117885593211231       -0.5578053818499882
N       -0.1079620606893391        2.2293869212661845       -0.0389696281031073        0.0943160920587207

        RMSE         8.286269348E+00 kcal/mol

Coordinates in bohr
s                   x[bohr]                   y[bohr]                   z[bohr]                      q[e]
+       -3.9080299823109108        3.1109377235143727        0.0543909043257886        0.0690680479201058
-       -3.5402754003685954       -0.4694912822648755        0.7565706985248711       -0.3117950550350966
+       -3.7117495133778005       -0.5817174996013317        0.1114875377887323        0.5776243102962968
+       -6.3018984851639432       -0.9252249563321149        0.1676782380199998        0.0604184539076988
-       -3.5662477412279001       -0.4977330084588767       -0.5059450937561047       -0.3968494342195521
-       -1.8394112552216406       -0.3095357845975060        0.1462561130870177       -0.9828651838991298
+       -1.3781192077088653       -0.0160326339814964        0.1552675896886447        0.7759263489545838
+       -1.8638083479068090       -2.5493755321228946        0.0242842397979573        0.9970342621901004
-       -2.0529591344182090       -2.6078883488280460       -0.5352776398401766       -0.3970377457969525
-       -2.0969004906401243       -2.6403304747933189        0.5059442546308059       -0.3893757401670396
+        3.3445439447475303       -2.5101271759280124       -0.3763866770465450        0.1691966627363242
-        2.6341801087043608       -1.8360978170840105       -0.2853432075214971       -0.6800109224217911
-        0.6250155399005379        0.7396214917036206       -0.7142789104366414       -0.9821368279659007
+        0.4964578945485232        0.8521938643075132       -0.4629342044466604        0.8921713087406896
-        1.0808954548029848        0.8474225105848423        0.5364531254407622       -0.3335771210350215
+        1.5623893970539446       -0.3346668439810158       -0.2346832557478242        0.9988617281482304
+        4.3052280111901062        3.1396963246442113        0.4805394860038836        0.0655379221577991
+        2.0859365217894617        1.9729029091999581        0.3006152924376664        0.9908754307264420
-        1.7706927981406715        2.1127967087045527       -0.3501349468437354       -0.6595771554465193
-        1.8479848812607786        2.0201777703315522        0.9671402112595497       -0.5578053818499882
+       -0.2040187266429077        4.2129307088707035       -0.0736419243258175        0.0943160920587207
