21
s                      x[A]                      y[A]                      z[A]                      q[e]
N       -1.9913677177568718        1.7029505311938040        0.1639421386381803        0.0690680479201058
O       -1.8914744948769906       -0.2031074090135278        0.3361228781874540       -0.3117950550350966
N       -1.9881863135576987       -0.2782353654596839       -0.0281081116652871        0.5776243102962968
N       -3.3507305965356515       -0.3776071577930857       -0.0635436124338349        0.0604184539076988
O       -1.8726619327102687       -0.1655493073758539       -0.3307332763933749       -0.3968494342195521
O       -0.9745514518252172       -0.1106493959986446        0.1073904960182970       -0.9828651838991298
N       -0.7397487496616452       -0.0331553784547540        0.0962775141718318        0.7759263489545838
N       -1.0613272843772097       -1.3581151597164767       -0.1128313463514275        0.9970342621901004
O       -1.1153892014503723       -1.3180702989754549       -0.3921200058629006       -0.3970377457969525
O       -1.1649425037808403       -1.3733502552898527        0.1551262830236379       -0.3893757401670396
N        1.7233985695626546       -1.1868683742087764       -0.5131590029842431        0.1691966627363242
O        1.3701950534999912       -0.8573005441344119       -0.3345082889188049       -0.6800109224217911
O        0.3465112438440617        0.3881139585731262       -0.3160263608670354       -0.9821368279659007
N        0.2799102694651513        0.3947526375192620       -0.2170420949761167        0.8921713087406896
O        0.5940643714189970        0.3758944289813155        0.3342777513242181       -0.3335771210350215
N        0.8061552542079269       -0.2691729425105953       -0.1208985810685164        0.9988617281482304
N        2.3877332798135997        1.4846505974754485        0.6251131308150875        0.0655379221577991
N        1.1795703035878073        0.8816640723204328        0.0163466819067669        0.9908754307264420
O        0.9930897264897428        0.9854905711005481       -0.2909766941908120       -0.6595771554465193
O        1.0887709543982358        0.9876461735284828        0.4084320883273550       -0.5578053818499882
N       -0.0054337203409956        2.1928799202188181        0.1052681554247784        0.0943160920587207

        RMSE         6.149433070E+00 kcal/mol

Coordinates in bohr
s                   x[bohr]                   y[bohr]                   z[bohr]                      q[e]
+       -3.7631396016384913        3.2181101091592175        0.3098057424479985        0.0690680479201058
-       -3.5743687686061980       -0.3838173770869123        0.6351801842749110       -0.3117950550350966
+       -3.7571276190076728       -0.5257886391354714       -0.0531166329511791        0.5776243102962968
+       -6.3319631476443137       -0.7135741112414706       -0.1200800245221847        0.0604184539076988
-       -3.5388181783929440       -0.3128428511995995       -0.6249953129588254       -0.3968494342195521
-       -1.8416353391169689       -0.2090970543847676        0.2029386259516507       -0.9828651838991298
+       -1.3979225385103735       -0.0626545848653902        0.1819381338246469        0.7759263489545838
+       -2.0056178969488232       -2.5664656986965571       -0.2132203429708734        0.9970342621901004
-       -2.1077801140343131       -2.4907918791639276       -0.7409994193938001       -0.3970377457969525
-       -2.2014222840509086       -2.5952558568254123        0.2931461897749337       -0.3893757401670396
+        3.2567513014791984       -2.2428561742219828       -0.9697299744532157        0.1691966627363242
-        2.5892933895720200       -1.6200632356200100       -0.6321290527520610       -0.6800109224217911
-        0.6548113502570115        0.7334290871704938       -0.5972032704638002       -0.9821368279659007
+        0.5289537489922370        0.7459743722135335       -0.4101501172004668        0.8921713087406896
-        1.1226189628741614        0.7103375228600440        0.6316933998366701       -0.3335771210350215
+        1.5234126450518162       -0.5086631417286299       -0.2284652071759566        0.9988617281482304
+        4.5121619594888660        2.8055830212259290        1.1812926146680076        0.0655379221577991
+        2.2290648195041012        1.6661036313414619        0.0308907518637661        0.9908754307264420
-        1.8766676010714360        1.8623072786010610       -0.5498662609117304       -0.6595771554465193
-        2.0574789171659997        1.8663807768252296        0.7718247877875020       -0.5578053818499882
+       -0.0102682432868111        4.1439424752293785        0.1989279834849590        0.0943160920587207
