25
s                      x[A]                      y[A]                      z[A]                      q[e]
N 1.6647658657666173 0.5517971944525900 -1.5064527865425825 0.1158659338886357
O 1.7795596778727867 -0.5393841960758080 -0.2465029050410193 -0.2341991647481463
N 3.3495798018856693 -0.3004610458760568 -0.0261635416307543 0.0569852111266852
N 2.1396230434424561 -0.2699651766553832 0.0923474669752687 0.3189271149812888
O 1.9058035327087204 0.1478708878669588 0.1391972866214088 -0.2877498234141676
N 1.4038741276584417 -0.4466531378872975 0.7073432444709273 0.5692545008206258
O 1.0037695303437355 -0.1763174584679806 -0.0213804352542476 -0.2058946535748549
O 1.1185925543414243 -0.3635968115553527 0.6623960213757057 -0.9992971180892700
N 0.7142689272643781 -0.1165961098787225 0.4058743047221466 0.6691943173322236
N 1.1324400281212323 -1.0205654306637069 1.7691838176264971 0.0628076875181509
N -0.9217504987236737 1.5442626103928938 0.0494613056927697 0.7576134719858190
O -0.7975275621021800 1.2266971334009855 -0.0051370394810592 -0.9235083265987739
N -0.7901707451234977 0.7826471979413120 0.0478660116626167 0.9955526175656415
O -0.8895259725842959 1.3582864720084309 0.1002089184640195 -0.9936641819349231
O -0.4622254103150762 -0.2007409941654796 0.2166905072524673 -0.9934394819660318
N -0.5187617059791303 0.1959924907748488 0.0582251256384667 0.8475065253219278
N -0.3434173862386606 -0.4543819989284122 0.1547171260229204 0.9207393412409772
O -0.5386422155587968 -0.3306846209152166 -0.1692462446553853 -0.6738758902636315
N -2.6739569754718731 -0.5928760875431954 -0.5441111612798382 0.1207489421105395
N -0.9202479661486218 -0.8361093452172259 -0.1342643249890199 0.4308753055723465
O -1.3008758610981381 -0.6568254561208433 0.0619019502496606 -0.7095764258838037
N -1.4140724874379977 -0.4869375403562221 -0.1653153586570245 0.9977500474782615
O -1.3078839582667261 -0.6520180586476658 -0.2728440727776481 -0.9963537733476465
O -1.3619134819339322 -2.1661367138008294 0.1283982896397138 -0.1586318904925156
N -1.3440861934838999 -2.0967533872571664 -0.0311338849525728 0.3123697133706422
