25
s                      x[A]                      y[A]                      z[A]                      q[e]
N 0.1085917017945138 0.0209044193934384 0.1860365685161477 0.1158659338886357
O -0.1592568062552502 0.4195233477793915 0.2913945455925662 -0.2341991647481463
N -0.0914637772862260 0.0161733565254287 -0.4048324710381949 0.0569852111266852
N -0.4666884847802589 0.0021803707372659 0.1525861324144151 0.3189271149812888
O -0.2384898900241307 -0.3820305304285002 0.3103731453228985 -0.2877498234141676
N -0.0260839000448753 0.0952128962893136 -0.4855089547529441 0.5692545008206258
O -0.1725865581615553 -0.4418738058915318 0.0624185569127708 -0.2058946535748549
O -0.0003286754904219 0.1148691914153260 -0.1828770938239541 -0.9992971180892700
N -0.1540993015086855 0.0082377917366090 0.2878053769106242 0.6691943173322236
N 0.0321925127231622 0.0560369458235965 0.4694222549976528 0.0628076875181509
N 0.0084847599137708 0.0015456277716697 0.0191746294850038 0.7576134719858190
O -0.0286815765054295 -0.0409551433629864 -0.2346878325309261 -0.9235083265987739
N 0.0380090985067932 -0.0043313346770346 -0.6734592412953924 0.9955526175656415
O 0.0024489519065029 0.0309960109655400 -0.1257124669539358 -0.9936641819349231
O -0.0813455291329250 0.0741090395257662 -0.1470816695158793 -0.9934394819660318
N -0.0716379796815097 -0.0302993118711871 0.2133418447001579 0.8475065253219278
N -0.1266603107265476 0.0140239454480828 -0.3841124205021365 0.9207393412409772
O 0.1253179986966371 -0.1809837798810683 -0.2312320634024256 -0.6738758902636315
N -0.0342580840667585 -0.0020009568932974 0.2335736086570878 0.1207489421105395
N 0.3064854852387773 0.0575065703030987 -0.5212561646614580 0.4308753055723465
O 0.3868194649576652 -0.1645907554696220 -0.1913074877137596 -0.7095764258838037
N 0.5129621476959054 -0.0060808919638084 -0.0205018345533053 0.9977500474782615
O 0.3556035933255411 0.0889966949701195 -0.1376113965154553 -0.9963537733476465
O -0.0107140354497598 -0.3308606316063984 -0.0290442996634177 -0.1586318904925156
N -0.0136643547904128 -0.1773387505127631 -0.0420718247796465 0.3123697133706422
