25
s                      x[A]                      y[A]                      z[A]                      q[e]
N       -1.6785225567472724        0.5627540428997231       -1.5075674841799045        0.1158659338886357
O       -1.8385375101797401        0.2196597897299935        0.1508200839644980       -0.2341991647481463
N       -3.3519326967837100       -0.2809950895935003       -0.0201797284546899        0.0569852111266852
N       -2.1475346733665339       -0.2922144757081073        0.0655452847639858        0.3189271149812888
O       -1.8494153434666740       -0.4941157304688861       -0.1710789870035972       -0.2877498234141676
N       -1.4560300241480297       -0.4827399100457838        0.4732523709114050        0.5692545008206258
O       -0.7692034083951975       -0.1990551080356671        0.9381296928029844       -0.2058946535748549
O       -1.2227462840453085       -0.3206082436902042        0.3645346848695193       -0.9992971180892700
N       -0.6999333351224277       -0.1246151295447785        0.4280864767854156        0.6691943173322236
N       -1.1254974182551767       -1.0274791242656143        1.7382112558596430        0.0628076875181509
N        0.9267587416702132        1.5762622946425944        0.0416808314523593        0.7576134719858190
O        0.8484708639096377        1.2335293050774778        0.1333464042984330       -0.9235083265987739
N        0.8107850197222277        0.8116079473253706        0.0617782179936960        0.9955526175656415
O        0.8813879546710678        1.3802697962321353       -0.0016456731124133       -0.9936641819349231
O        0.4074167118502227       -0.1934305415889696        0.0026603688322424       -0.9934394819660318
N        0.5559826933683635        0.2085775961198061        0.1518920413739273        0.8475065253219278
N        0.3382011874598294       -0.4625560963129933        0.1111860546281184        0.9207393412409772
O        0.6658281090624283       -0.3476967508301929        0.3164828090574999       -0.6738758902636315
N        2.6926285444238496       -0.5912056761960213       -0.4992144647450023        0.1207489421105395
N        0.9622417317929520       -0.8520243014200325        0.0100784336470079        0.4308753055723465
O        1.1954793039027378       -0.6386681007292052       -0.3399007714538224       -0.7095764258838037
N        1.4314927412494394       -0.4832939359532680       -0.1837212890233453        0.9977500474782615
O        1.3804351584052414       -0.6695323145076505       -0.0408824781367837       -0.9963537733476465
O        1.1791032340912915       -2.1298450536882254       -0.5809838601163941       -0.1586318904925156
N        1.2283618128677809       -2.0935927798549638       -0.4170166193640249        0.3123697133706422

        RMSE         1.011250941E+00 kcal/mol

Coordinates in bohr
s                   x[bohr]                   y[bohr]                   z[bohr]                      q[e]
+       -3.1719479276555904        1.0634510170746221       -2.8488896607454968        0.1158659338886357
-       -3.4743323656208425        0.4150968433653419        0.2850086529114551       -0.2341991647481463
+       -6.3342347878884890       -0.5310037619302006       -0.0381341600654722        0.0569852111266852
+       -4.0582523775872827       -0.5522053289825722        0.1238626370190769        0.3189271149812888
-       -3.4948884913715363       -0.9337434048667327       -0.3232924312575579       -0.2877498234141676
+       -2.7514979760835243       -0.9122462198146796        0.8943173692461404        0.5692545008206258
-       -1.4535837766356121       -0.3761596380608306        1.7728081895575263       -0.2058946535748549
-       -2.3106555977668979       -0.6058617741385287        0.6888707176334671       -0.9992971180892700
+       -1.3226823094596809       -0.2354884659280796        0.8089661991365960        0.6691943173322236
+       -2.1268818754121437       -1.9416541444872617        3.2847432217628287        0.0628076875181509
+        1.7513202061306243        2.9787040387602155        0.0787653561263277        0.7576134719858190
-        1.6033775582198158        2.3310325543227495        0.2519881839386109       -0.9235083265987739
+        1.5321616338989341        1.5337167416899535        0.1167439125269162        0.9955526175656415
-        1.6655818446057569        2.6083318941202189       -0.0031098714744909       -0.9936641819349231
-        0.7699060043314898       -0.3655307479021328        0.0050273684856422       -0.9934394819660318
+        1.0506550209606051        0.3941545325727889        0.2870343588334318        0.8475065253219278
+        0.6391076196037000       -0.8741043396924508        0.2101111922173366        0.9207393412409772
-        1.2582327727594549       -0.6570516337806164        0.5980658325342390       -0.6738758902636315
+        5.0883305065512330       -1.1172168118265826       -0.9433786162350768        0.1207489421105395
+        1.8183733395749260       -1.6100925819183907        0.0190454793664440        0.4308753055723465
-        2.2591284730291421       -1.2069077954445109       -0.6423193678795586       -0.7095764258838037
+        2.7051292315423083       -0.9132931770462328       -0.3471829196702041        0.9977500474782615
-        2.6086443833389001       -1.2652327065633544       -0.0772566870085386       -0.9963537733476465
-        2.2281821860741307       -4.0248238411317701       -1.0979003789312862       -0.1586318904925156
+        2.3212674092909853       -3.9563169721618046       -0.7880472003623007        0.3123697133706422
