8
s                      x[A]                      y[A]                      z[A]                      q[e]
C 1.3939624191408631 0.7185079627239725 -0.3979536797683162
C 0.7688604145412453 -0.2924878062562961 0.2154227208237890
C -0.6836392312088828 -0.2857942759983411 0.5036997616309229
O -1.5698600969019467 -0.1998150680925828 -0.3524342050318802
H -0.9613586512601736 -0.4178170052660444 1.5622997476635665
H 2.4703084380412079 0.7224278876437558 -0.5326190693780606
H 0.8427996742762595 1.5689409614856407 -0.7888278226618300
H 1.3320301114171891 -1.1163870003553746 0.6516053349150263
