23
s                      x[A]                      y[A]                      z[A]                      q[e]
N       -1.2173026170563699       -1.5273241924336074        0.5599482500668680        0.2856065124296451
O       -1.2373076079901306       -1.3131204813682635        0.4362235908237821       -0.2980193526493612
N       -2.6099353746311791       -0.2680330366114650       -0.0887711549176646        0.9235469647741466
O       -2.5232172838932772       -0.2871252549638325       -0.0621400577792545       -0.9987019282037162
O       -1.4070219202730025       -0.1772046359787242        0.0281834923521996       -0.9994297377915048
N       -1.6631426946150976        0.1034029786535031       -0.1322979417637081        0.3910255639585828
N       -1.8641932311934071       -0.4920965254488477        0.1123417524118985        0.3788084070601841
N       -1.0034027371530703       -0.5480446605866007        0.1973582033034956        0.3521750120262308
N       -1.1588008157038436        0.7148129502184902       -0.1994797355178806        0.5091785922378865
N       -0.5518847971377205        0.8542510377187892        0.1185060674632109        0.9946620798872232
O       -0.6916794968830681        0.9011078084582258        0.0269196368422598       -0.5088390984708862
O       -0.8281854226962585        0.7107450370118116       -0.1067762981397243       -0.9513197152299744
N       -1.2058666058567218        1.7236990582023737       -0.6578499385030370        0.0534150746794947
N       -0.7719034823741769        1.8370256632296160       -0.7001247486425065        0.0449830180293293
O       -0.8033921055011017        0.7210465014246339        0.3274809944485083       -0.1594766348608674
O        1.0540514463273956        1.3151537999706073        0.5991366862220404       -0.2085098172073890
N        1.0203802549607157        1.1015677040848759        0.8190576227124953        0.7433887315217406
O        0.9446087129663582        1.0296452599140626        0.9596811241413810       -0.4563903046399361
N        0.5507433492603765        0.0585597911875905       -0.1610595583055286        0.2740207269363132
N        1.2498676318590582       -0.1463088150529987        0.0348796544511788        0.2947455612059413
O        1.3882175557522920       -0.7259682486491323       -0.3991638520531940       -0.8294346811293033
N        1.6154441075386032       -0.6836833319198393       -0.2972454728729600        0.8271270632704910
O        1.8187642130399646       -0.5113452434724166       -0.0853977834221811       -0.6625620378342709

        RMSE         8.009752302E-01 kcal/mol

Coordinates in bohr
s                   x[bohr]                   y[bohr]                   z[bohr]                      q[e]
+       -2.3003685580396080       -2.8862244284855674        1.0581488370557535        0.2856065124296451
-       -2.3381725120466830       -2.4814380795153670        0.8243431161207269       -0.2980193526493612
+       -4.9320630631971030       -0.5065090317704800       -0.1677531706349749        0.9235469647741466
-       -4.7681896215798671       -0.5425880955838942       -0.1174276906229162       -0.9987019282037162
-       -2.6588860818317341       -0.3348682301612392        0.0532590818045925       -0.9994297377915048
+       -3.1428842003784800        0.1954033102116829       -0.2500068768951775        0.3910255639585828
+       -3.5228146518878263       -0.9299276603877106        0.2122951445124795        0.3788084070601841
+       -1.8961563667540509       -1.0356543130281675        0.3729529528560331        0.3521750120262308
+       -2.1898161756373953        1.3508007068434669       -0.3769620677075568        0.5091785922378865
+       -1.0429111193941440        1.6143005036766565        0.2239440117104975        0.9946620798872232
-       -1.3070848157034602        1.7028469674975577        0.0508707410286553       -0.5088390984708862
-       -1.5650436299924542        1.3431134649807113       -0.2017779601743112       -0.9513197152299744
+       -2.2787576289046050        3.2573191427120789       -1.2431562154200146        0.0534150746794947
+       -1.4586861769743584        3.4714753889414993       -1.3230440285893397        0.0449830180293293
-       -1.5181910507520038        1.3625804114120958        0.6188493908002561       -0.1594766348608674
-        1.9918685557014892        2.4852804947995955        1.1322042486740189       -0.2085098172073890
+        1.9282392257005843        2.0816612693697878        1.5477945878951833        0.7433887315217406
-        1.7850517632276217        1.9457475476134201        1.8135344923987049       -0.4563903046399361
+        1.0407540955194787        0.1106619673085448       -0.3043584550846558        0.2740207269363132
+        2.3619075172881692       -0.2764835901904291        0.0659129942633340        0.2947455612059413
-        2.6233509829243151       -1.3718811657251300       -0.7543103595633041       -0.8294346811293033
+        3.0527469342326037       -1.2919742538689762       -0.5617125357620987        0.8271270632704910
-        3.4369662494293682       -0.9663024657184197       -0.1613784223890851       -0.6625620378342709
