23
s                      x[A]                      y[A]                      z[A]                      q[e]
N -1.2208325576701544 -1.5285261152638185 0.5589705558236424 0.2856065124296451
O -1.2337006378492910 -1.3131428000542016 0.4381361766816276 -0.2980193526493612
N -2.6130398709719205 -0.2695360673459007 -0.0896418051473883 0.9235469647741466
O -2.5245102970665183 -0.2847852800112771 -0.0621824217369151 -0.9987019282037162
O -1.4036471588702175 -0.1742618587909819 0.0288712345221147 -0.9994297377915048
N -1.6665622672557119 0.0999964990689526 -0.1326646935867484 0.3910255639585828
N -1.8670622146779261 -0.4940071930183412 0.1116745038567752 0.3788084070601841
N -1.0082556388170949 -0.5499734617349864 0.1961419233791665 0.3521750120262308
N -1.1632173209200221 0.7102312299085696 -0.1980260162511824 0.5091785922378865
N -0.5574984057315713 0.8521341986928104 0.1221506811180640 0.9946620798872232
O -0.6879524174904371 0.9056685785585161 0.0244077610918657 -0.5088390984708862
O -0.8245672603442648 0.7162116301842592 -0.1086843982649327 -0.9513197152299744
N -1.2066221482546382 1.7217279805254573 -0.6567421631947375 0.0534150746794947
N -0.7726413613008987 1.8354450716279331 -0.6989841297594553 0.0449830180293293
O -0.8006451551613876 0.7228525996236344 0.3257626193595612 -0.1594766348608674
O 1.0568041940483008 1.3162498585828815 0.5978079806386802 -0.2085098172073890
N 1.0178105208051349 1.1029611805041777 0.8215400308652426 0.7433887315217406
O 0.9490572522058378 1.0303482095163485 0.9601455336344168 -0.4563903046399361
N 0.5463292700287699 0.0562902971258710 -0.1615745192933150 0.2740207269363132
N 1.2467809478755996 -0.1473892674444093 0.0344826404899004 0.2947455612059413
O 1.3939243787844555 -0.7263154405481376 -0.3993196849973761 -0.8294346811293033
N 1.6127796924784077 -0.6859182241441718 -0.2984988302050842 0.8271270632704910
O 1.8230716841825165 -0.5115512114147205 -0.0850811802032810 -0.6625620378342709
