25
s                      x[A]                      y[A]                      z[A]                      q[e]
N        1.6800599252427304        0.5531801034425126       -1.5106188360050552        0.1158659338886357
O        1.7716580460701534       -0.5725430087261483       -0.2409652303274638       -0.2341991647481463
N        3.3527016433923373       -0.2889886192805764       -0.0247090235356998        0.0569852111266852
N        2.1553629178970199       -0.2271814778317598        0.0989036836961180        0.3189271149812888
O        1.8927289160432550        0.1095625656813217        0.1230847585234773       -0.2877498234141676
N        1.3998057280501828       -0.4857046671674293        0.7082212681506643        0.5692545008206258
O        1.0147247104279318       -0.1706261981262449       -0.0275088305492632       -0.2058946535748549
O        1.1336215766903674       -0.3297124377453970        0.6718047413659146       -0.9992971180892700
N        0.7114252011356063       -0.1234593424541338        0.3997892119211759        0.6691943173322236
N        1.1290523972684301       -0.9852028740418844        1.7639506256256889        0.0628076875181509
N       -0.9239859291271008        1.5672686795394561        0.0495144504410159        0.7576134719858190
O       -0.8083978450938861        1.2378795165832501       -0.0088289313893091       -0.9235083265987739
N       -0.7993410053934258        0.8072347564250693        0.0424933524598650        0.9955526175656415
O       -0.9026909668151245        1.3749679989378143        0.1002795884560357       -0.9936641819349231
O       -0.4667233162146381       -0.1977098169259995        0.2225983270306586       -0.9934394819660318
N       -0.5250999838311425        0.2102092696818335        0.0515067933676644        0.8475065253219278
N       -0.3450826600132657       -0.4602133237058020        0.1540316252260381        0.9207393412409772
O       -0.5393315541953934       -0.3314452584508868       -0.1801384235440364       -0.6738758902636315
N       -2.6793765159487619       -0.5903970530478428       -0.5438215515349293        0.1207489421105395
N       -0.9213191534391481       -0.8409706850144266       -0.1327945189030144        0.4308753055723465
O       -1.3057954339055746       -0.6597928784614051        0.0656730974019725       -0.7095764258838037
N       -1.4303214224514393       -0.4842960429700540       -0.1674793678063742        0.9977500474782615
O       -1.3127860522273673       -0.6561857931698863       -0.2826765512704980       -0.9963537733476465
O       -1.3710104867494837       -2.1679133169295586        0.1303197117184569       -0.1586318904925156
N       -1.3346347918000978       -2.1097204947490411       -0.0263863252971648        0.3123697133706422

        RMSE         6.618343147E-01 kcal/mol

Coordinates in bohr
s                   x[bohr]                   y[bohr]                   z[bohr]                      q[e]
+        3.1748531330659135        1.0453588935587799       -2.8546558800074471        0.1158659338886357
-        3.3479484950363374       -1.0819494815380317       -0.4553582910767713       -0.2341991647481463
+        6.3356878863838944       -0.5461093438144911       -0.0466932873099643        0.0569852111266852
+        4.0730456157930144       -0.4293107738787948        0.1869008749845717        0.3189271149812888
-        3.5767392810564154        0.2070432427401829        0.2325964838274830       -0.2877498234141676
+        2.6452494548619461       -0.9178487988030901        1.3383442330291844        0.5692545008206258
-        1.9175517954432921       -0.3224367842867084       -0.0519841557697351       -0.2058946535748549
-        2.1422343098544823       -0.6230662074958645        1.2695269709656081       -0.9992971180892700
+        1.3443987888950453       -0.2333043448674214        0.7554921184436424        0.6691943173322236
+        2.1335998121289430       -1.8617636099530870        3.3333835812625452        0.0628076875181509
+       -1.7460803498269075        2.9617085693375031        0.0935687505860746        0.7576134719858190
-       -1.5276505276377270        2.3392532626564746       -0.0166842623062521       -0.9235083265987739
+       -1.5105355810416834        1.5254526085940399        0.0803007983016946        0.9955526175656415
-       -1.7058387032053262        2.5983129492612589        0.1895009581555300       -0.9936641819349231
-       -0.8819792440111168       -0.3736174063045455        0.4206498740730410       -0.9934394819660318
+       -0.9922951579231931        0.3972379487311710        0.0973337330654334        0.8475065253219278
+       -0.6521117180695495       -0.8696771410906345        0.2910775863363733        0.9207393412409772
-       -1.0191889282468094       -0.6263407640537628       -0.3404122851699531       -0.6738758902636315
+       -5.0632878021265482       -1.1156887355378200       -1.0276737935225666        0.1207489421105395
+       -1.7410408741386476       -1.5892042742159280       -0.2509452716886298        0.4308753055723465
-       -2.4675957459549052       -1.2468278398195387        0.1241041679002441       -0.7095764258838037
+       -2.7029157598084881       -0.9151868848563579       -0.3164901368188660        0.9977500474782615
-       -2.4808061000307009       -1.2400114365074011       -0.5341812639901793       -0.9963537733476465
-       -2.5908343350871528       -4.0967624327297232        0.2462685638965006       -0.1586318904925156
+       -2.5220942340096140       -3.9867939363410776       -0.0498629282688811        0.3123697133706422
