25
s                      x[A]                      y[A]                      z[A]                      q[e]
N 0.0640800792734224 -0.0060642100219486 0.2426573028090995 0.1158659338886357
O -0.1738279852924904 0.4442387400532836 0.3095308674728471 -0.2341991647481463
N -0.0846395919634623 -0.0036168662429469 -0.3917473235656982 0.0569852111266852
N -0.5118564625489264 -0.0388697686671360 0.1386534123326854 0.3189271149812888
O -0.2337908340787786 -0.3346266456957310 0.2745321882029353 -0.2877498234141676
N 0.0368712330698861 0.1237580811580151 -0.5544684823364241 0.5692545008206258
O -0.1579468319010347 -0.4989992573950218 0.0436887111607926 -0.2058946535748549
O -0.0736669024487347 0.1559809529453062 -0.2669316503267924 -0.9992971180892700
N -0.1843284603308351 -0.0139300979400485 0.2410502545137204 0.6691943173322236
N 0.0180365241203487 -0.0272596556252175 0.3828410291354901 0.0628076875181509
N 0.0570830799082362 0.0021331968611512 0.2887096397448037 0.7576134719858190
O 0.0328910838316758 -0.0720173999142283 -0.0580937568832430 -0.9235083265987739
N 0.1042638444918956 -0.0119055664872618 -0.4802070027493062 0.9955526175656415
O 0.0655264130384877 0.0530556103639862 0.0937430222959658 -0.9936641819349231
O -0.0418007445123502 0.1129767661339723 -0.1206838155620054 -0.9934394819660318
N -0.0292883315657153 -0.0528887537537496 0.2946917353708485 0.8475065253219278
N -0.0815181873517997 0.0222098291471659 -0.4024989927932057 0.9207393412409772
O 0.1561890096338345 -0.2557885660934314 -0.2258108815166959 -0.6738758902636315
N -0.0655336387707719 0.0235970968545042 0.2192083066586346 0.1207489421105395
N 0.2640265343320713 0.0737614077133913 -0.4901640453907728 0.4308753055723465
O 0.3506172626908949 -0.2096165617493793 -0.1254376344031877 -0.7095764258838037
N 0.4489161840107503 -0.0073201779895681 0.0997709068537424 0.9977500474782615
O 0.3063240608451885 0.1252318061384928 -0.0367069101082759 -0.9963537733476465
O -0.0338146708717517 -0.3674853380097569 -0.1393397148604772 -0.1586318904925156
N -0.0297361694820946 -0.2031644601345814 -0.0914638129300704 0.3123697133706422
