24
s                      x[A]                      y[A]                      z[A]                      q[e]
N       -1.6365755187316360       -0.2963034567658086        0.2285604839121256        0.6959175615854226
O       -1.7788651739535706       -0.1613970435608925        0.4678965669093942       -0.4294665048044459
N       -1.7798855005698084       -1.3756877017345470       -0.4968305216072171        0.7289443612696791
O       -1.7326157335203760       -1.2219558898015579       -0.3768987523978239       -0.8899528116456963
N       -2.4999694423819738        0.0980561791466779       -0.1836335608609458        0.4821174903544280
O       -2.2697813244469556       -0.0271594346900206       -0.2047218944441382       -0.6035297564939646
N       -1.9207804837009286       -1.0431251000380397        1.4778843343785582        0.0604057803354635
N       -0.3430032110211243        1.6737373477454891       -0.0171325898505239        0.6991174418445399
O        0.0501530822695280        1.5238168399818905       -0.0405856478570026       -0.4131324281244263
O       -0.5103315090619684        1.5618080051719265       -0.0157118891882006       -0.9286014603942530
O       -0.0042781032981665       -0.0991269926184175        0.0473188992830526       -0.1057946580878595
N       -0.7292936437253996        0.1685155656215914        0.0829241570702866        0.9961038253671308
O       -0.8250225977368086        0.1452719085307643        0.3727116343986175       -0.3737552305035935
N        0.3508698246220719       -0.5110902952692563       -0.2050066735388550        0.9714181100989372
O        0.5977568267831836       -0.7621829356336404        0.0345904519807680       -0.9973398242463560
N        0.9315595867404850       -0.6467377155467404       -0.2355962391611588        0.7637225416907655
O        0.5819614745715471       -0.7394481313178893       -0.4633532743754625       -0.9974375214017446
O        2.1370024560970577       -0.5163433337225962        0.2165213461501975       -0.4871145088925188
N        1.3565092921855697       -0.2383455855517702        0.2398264323251277        0.4662300369825688
N        2.2691564294426168       -0.5693886491185486        0.1328456563469307        0.6223673236702755
N        2.3478849250092710        0.3178955390359824       -0.7146478392192859        0.9509229066582735
O        2.3502757633326841        0.2258333984898958       -0.7038963010456891       -0.9922381659518612
O        1.8778529960088033        0.0769016617185482        0.7612615989999448       -0.6086911331096487
N        1.9211412706226145        0.2684566189214412        1.0601676282334496        0.3897866237988844

        RMSE         1.194811802E+00 kcal/mol

Coordinates in bohr
s                   x[bohr]                   y[bohr]                   z[bohr]                      q[e]
+       -3.0926795140318699       -0.5599323833138126        0.4319167176960274        0.6959175615854226
-       -3.3615679928871463       -0.3049962097886737        0.8841963665007089       -0.4294665048044459
+       -3.3634961307503510       -2.5996729904388101       -0.9388736166059981        0.7289443612696791
-       -3.2741692170127332       -2.3091619691150709       -0.7122354190586291       -0.8899528116456963
+       -4.7242575681154548        0.1852993234960504       -0.3470171374697793        0.4821174903544280
-       -4.2892650678836830       -0.0513238932863975       -0.3868683123843077       -0.6035297564939646
+       -3.6297490613191687       -1.9712207536626940        2.7927966370800141        0.0604057803354635
+       -0.6481821289825430        3.1629051931891445       -0.0323759026372886        0.6991174418445399
-        0.0947755898369628        2.8795964929263693       -0.0766957590740094       -0.4131324281244263
-       -0.9643867853187202        2.9513893903225643       -0.0296911674792411       -0.9286014603942530
-       -0.0080844435699525       -0.1873228676890888        0.0894197602030921       -0.1057946580878595
+       -1.3781652516782212        0.3184482669014243        0.1567039460472890        0.9961038253671308
-       -1.5590667570363317        0.2745241208457052        0.7043229127851541       -0.3737552305035935
+        0.6630478742231356       -0.9658206834382690       -0.3874064668795783        0.9714181100989372
-        1.1295966922429517       -1.4403170058450325        0.0653664807994518       -0.9973398242463560
+        1.7603924884841924       -1.2221571573875887       -0.4452123682024525        0.7637225416907655
-        1.0997478025078142       -1.3973544521723864       -0.8756107879037408       -0.9974375214017446
-        4.0383493714541556       -0.9757474874415800        0.4091660445393259       -0.4871145088925188
+        2.5634310488693774       -0.4504078799047240        0.4532062747401375        0.4662300369825688
+        4.2880841874683160       -1.0759886057784616        0.2510419074523875        0.6223673236702755
+        4.4368594823586136        0.6007355052827948       -1.3504886922746699        0.9509229066582735
-        4.4413775120001127        0.4267632731272846       -1.3301712296991670       -0.9922381659518612
-        3.5486278663270903        0.1453230792406607        1.4385759319379967       -0.6086911331096487
+        3.6304308497908022        0.5073094863279238        2.0034264644374118        0.3897866237988844
