21
s                      x[A]                      y[A]                      z[A]                      q[e]
N -2.6810340731586049 0.0764307505566133 -0.4072707133922938 0.0707249461841811
O -1.2957514209076602 0.8550871670420780 -0.3371259979880540 -0.3496602100029151
N -1.4506718058762269 0.5421958649949143 0.0838787106052314 0.9824851761690530
N -1.9108388579218938 2.2427230220687875 0.0230823483751490 0.1071394941056757
O -1.4369325280171048 0.6356481121816846 0.2474298293371010 -0.8194842575378962
N -0.3501954593738505 0.3226278724904668 -0.0385606047002065 0.3116552922920345
N 0.5991100519593983 1.5161360473259853 0.3892139230715468 0.0918298459672651
N -0.6254614122124076 1.1130470626281512 0.0845990610088539 0.5593901217632046
O -0.4632790142143414 0.7993537829035700 0.0508061962105979 -0.9963138680841535
N 1.0173005387592098 -1.0903792101171104 -0.0581354789936728 0.9989733053171830
O 1.1159731114224289 -1.0727741329339548 -0.0730507253941441 -0.8354521971080898
N 1.8856910289955460 -0.9756193644932307 0.0239169370603210 0.2899344186932475
O 1.4995281513771466 -0.9437600638486501 0.0346703542496249 -0.8678253524624289
N -0.2180848736902022 -0.7407741226968304 -0.0349127164782443 0.9219570073558310
O -0.0502601022375254 -0.8597877669549993 -0.2035058888604168 -0.9704818863270434
O -0.1213643977265614 -1.0473013424667892 0.4481457534215805 -0.3320651923316272
N 0.4865848920063172 -0.9138206352927163 0.0213423945240911 0.9769593393400061
O 0.8661856168228976 1.3326120545695548 0.2709184088605455 -0.1970026432733326
O 0.9376067302406805 1.1171212473182115 -0.7079144313934747 -0.1946060569702309
N 2.1682403091528748 1.7313003687122950 -0.2727420591245543 0.1283355164991325
N -1.7715956875874890 -1.8743249464776854 0.0315000605887008 0.1235072004109040
