25
s                      x[A]                      y[A]                      z[A]                      q[e]
N -1.8576061835418736 1.2416156586009994 0.5627806650926718 0.1158659338886357
O -1.7299076833639138 -0.4193928256857445 0.4535735163271339 -0.2341991647481463
N -3.2869251439524634 -0.6381952076792460 0.1196257914077949 0.0569852111266852
N -2.0803852795034654 -0.5244857831076564 0.0295832945854313 0.3189271149812888
O -1.8948186547699120 -0.2394907228507235 -0.3099335611120205 -0.2877498234141676
N -1.3092076204187588 -0.8759687755418870 -0.3533272126624142 0.5692545008206258
O -0.8749447150874149 -0.4938476535893405 0.2988061536356825 -0.2058946535748549
O -1.0552378219614154 -0.7206421712612493 -0.3526107760162864 -0.9992971180892700
N -0.6719487201769638 -0.3908049719079613 -0.1678864492322420 0.6691943173322236
N -0.8349114617243978 -2.0923895122019927 -0.6144895324839935 0.0628076875181509
N 0.5899095879674014 1.5944041247096483 -0.0849529068235577 0.7576134719858190
O 0.5413406881176827 1.2534378454385586 -0.0197540066583173 -0.9235083265987739
N 0.6241711763220025 0.8216946201546250 -0.0631611739686189 0.9955526175656415
O 0.5846867559818362 1.3965016611505747 -0.1374802834829372 -0.9936641819349231
O 0.4837702183542971 -0.2032791932170651 -0.1819927497801775 -0.9934394819660318
N 0.4856923972731035 0.1969506167077952 -0.0306849241875931 0.8475065253219278
N 0.4381130150813947 -0.4793913169864888 -0.1006295265672974 0.9207393412409772
O 0.6489294127963192 -0.3035952388851137 0.1844207295780388 -0.6738758902636315
N 2.8117057387326603 -0.1021220440360707 0.3238760447160750 0.1207489421105395
N 1.1142284754823868 -0.7214238464720413 0.1297141892931827 0.4308753055723465
O 1.4217122676879685 -0.4709581446614696 -0.1116952402740463 -0.7095764258838037
N 1.5223188227060309 -0.2759550341320567 0.0980136348008675 0.9977500474782615
O 1.4652309828790520 -0.4529797331320834 0.2185151245640538 -0.9963537733476465
O 1.7974342378677066 -1.9346767028172100 -0.1618531115855694 -0.1586318904925156
N 1.7804381095166335 -1.8701760728929151 -0.0064982042556377 0.3123697133706422
