21
s                      x[A]                      y[A]                      z[A]                      q[e]
N 1.9614998297941419 1.4149321472183822 -0.8076595352163676 0.0707249461841811
O 1.6559792549510757 -0.0667987774769612 -0.3646391447029066 -0.3496602100029151
N 1.5441686089899096 0.3327055610260486 -0.0076175211126901 0.9824851761690530
N 3.1122078296730633 -0.4628866647997583 0.0603253650901555 0.1071394941056757
O 1.6092847121445581 0.2900300011653369 0.1647096287318340 -0.8194842575378962
N 0.6521427223018843 -0.3040603728887992 0.0489512318316249 0.3116552922920345
N 0.8767773507485117 -1.7368171095173135 0.7188338124862248 0.0918298459672651
N 1.4102517892258410 -0.6359771887580916 0.2218217469899288 0.5593901217632046
O 1.0734439606096853 -0.5423366840888689 0.1619428632465290 -0.9963138680841535
N -1.2724117362558811 -0.4770674816083152 -0.1805033610551330 0.9989733053171830
O -1.3180939830190745 -0.5641325134410979 -0.2072237641888763 -0.8354521971080898
N -1.7275146960724965 -1.2297873416925595 -0.2045156044071852 0.2899344186932475
O -1.4651743026639534 -0.9511726461801362 -0.1446736605721375 -0.8678253524624289
N -0.2313298106016079 0.2968017514211918 0.0088891329490757 0.9219570073558310
O -0.4131759386896484 0.2636567091545301 -0.1827490123563617 -0.9704818863270434
O -0.5864543911463322 0.3391419449927625 0.4652333022367940 -0.3320651923316272
N -0.8148803842975378 -0.1817034137203385 -0.0301936214583082 0.9769593393400061
O -0.7560471453469302 1.1361535495751713 -0.4378775165201135 -0.1970026432733326
O -0.9432539478335513 1.0172357458364714 0.5421519794092134 -0.1946060569702309
N -2.1108000241422231 1.5790616059779305 -0.0926891204670534 0.1283355164991325
N -0.0524137970694323 2.1797489280400484 0.3036201438662249 0.1235072004109040
