21
s                      x[A]                      y[A]                      z[A]                      q[e]
N 1.4843810208289661 0.8077855784835022 0.0633937035146373 0.0707249461841811
O 0.5313756241640827 -0.3648209723771169 0.2679950949789369 -0.3496602100029151
N 0.9295480335425369 -0.0078784526488374 0.3824872057962426 0.9824851761690530
N -0.5713345535263411 0.0601852096536437 0.2170525842516135 0.1071394941056757
O 0.8596248282737748 0.1644748324642043 0.4160115237772284 -0.8194842575378962
N 0.1232288675444544 -0.0488584100913806 -0.2545288136958834 0.3116552922920345
N 0.8818617685705149 0.7189159303472589 0.0452013261424711 0.0918298459672651
N 0.1760047411739073 0.2217163549494536 -0.2406282440226156 0.5593901217632046
O 0.4333429247913213 0.1618480796018951 -0.4773730750924378 -0.9963138680841535
N -0.4034541061686981 0.1802986165865031 -0.3438959119112571 0.9989733053171830
O -0.3457268687579766 0.2070213491244322 -0.4227984365453540 -0.8354521971080898
N 0.0742295310458445 0.2043167290423379 -1.0823037644444662 0.2899344186932475
O -0.0619870464402362 0.1444898014177449 -0.7243703559312840 -0.8678253524624289
N -0.7415161033382890 -0.0090006129895376 0.3728834628412452 0.9219570073558310
O -0.9241712082577448 0.1826070696914733 0.3460848912342587 -0.9704818863270434
O -0.8377716555250503 -0.4654035809431564 0.6302671209963873 -0.3320651923316272
N -0.4689047180667069 0.0300364221028161 0.1967046866743639 0.9769593393400061
O 1.2393296526961477 0.4382393766152154 0.0410886471463100 -0.1970026432733326
O 1.0477303555716158 -0.5418220547745685 -0.0703775714485378 -0.1946060569702309
N -0.0973929075644959 0.0930532461725145 0.5357493623557306 0.1283355164991325
N -0.5050901686461552 -0.3038873656298137 0.8892478396350263 0.1235072004109040
