21
s                      x[A]                      y[A]                      z[A]                      q[e]
N        1.9835704682563078        1.4276492736805371        0.1315465075925960        0.0707249461841811
O        1.6485233944542290       -0.0761757623828154       -0.2617280815836551       -0.3496602100029151
N        1.4897064124914583        0.1263234024571178        0.2213342771047306        0.9824851761690530
N        3.0447638668221568       -0.6947691864236173        0.0307721320248212        0.1071394941056757
O        1.5325692679973104        0.0076473183730182        0.3621796021889671       -0.8194842575378962
N        0.4874440333508975       -0.6528476181403611        0.0720795263905653        0.3116552922920345
N        0.7351776690309112       -2.0150979272491023       -0.1476822919284199        0.0918298459672651
N        1.2472969480587164       -1.0082510443646253       -0.0332772393239236        0.5593901217632046
O        0.9499981896208174       -0.8166299763029342       -0.0070411667871665       -0.9963138680841535
N       -0.7192697086911887        0.8890600487019945        0.0610776745873976        0.9989733053171830
O       -0.6904178620625244        0.9856193285089851        0.0760986157613001       -0.8354521971080898
N       -0.5052997541628762        1.7386123448811370       -0.0211777193416634        0.2899344186932475
O       -0.5168194574039688        1.3515603389276012       -0.0302098097496780       -0.8678253524624289
N       -0.5308065376509657       -0.4073963314169961        0.0496277275138598        0.9219570073558310
O       -0.6414202451447771       -0.2312422998686866        0.2158528229019032       -0.9704818863270434
O       -0.7955332249541369       -0.2483993405849391       -0.4410910386856975       -0.3320651923316272
N       -0.6024438488231258        0.3422126634357250       -0.0135385330937195        0.9769593393400061
O       -1.4957366955486029       -0.5412928937640979        0.5508164680856197       -0.1970026432733326
O       -1.5527968049716874       -0.5078176226646135       -0.4518201906966473       -0.1946060569702309
N       -2.7745605804399598        0.0249300481615457        0.1046333353208365        0.1283355164991325
N       -1.7369713513425806       -1.8951377948272174        0.0498087034651697        0.1235072004109040

        RMSE         3.953356167E-01 kcal/mol

Coordinates in bohr
s                   x[bohr]                   y[bohr]                   z[bohr]                      q[e]
+        3.7484049355505626        2.6978661304650040        0.2485868721104652        0.0707249461841811
-        3.1152577269285771       -0.1439513283014739       -0.4945943935345909       -0.3496602100029151
+        2.8151371269471648        0.2387166338799391        0.4182611659041319        0.9824851761690530
+        5.7537698249838289       -1.3129234827477898        0.0581509018233421        0.1071394941056757
-        2.8961361848082974        0.0144513373191861        0.6844202563644144       -0.8194842575378962
+        0.9211357245217279       -1.2337031999427563        0.1362105641308782        0.3116552922920345
+        1.3892844480209015       -3.8079831984785466       -0.2790790853246248        0.0918298459672651
+        2.3570496289503722       -1.9053183395559723       -0.0628848685335310        0.5593901217632046
-        1.7952363980640984       -1.5432070010516619       -0.0133058768314145       -0.9963138680841535
+       -1.3592227597641806        1.6800800011329682        0.1154200773500169        0.9989733053171830
-       -1.3047006714222915        1.8625505948396308        0.1438055423153057       -0.8354521971080898
+       -0.9548781466290052        3.2855011701653805       -0.0400200895175549        0.2899344186932475
-       -0.9766472308012191        2.5540788826041250       -0.0570882667290771       -0.8678253524624289
+       -1.0030789817628443       -0.7698674908943733        0.0937828132300431        0.9219570073558310
-       -1.2121085946476500       -0.4369846153728104        0.4079027186915483       -0.9704818863270434
-       -1.5033399188655521       -0.4694067234498564       -0.8335412595096922       -0.3320651923316272
+       -1.1384538802424271        0.6466882105569963       -0.0255841196875771        0.9769593393400061
-       -2.8265327103841567       -1.0228953228706845        1.0408922700738035       -0.1970026432733326
-       -2.9343606898824417       -0.9596362285172054       -0.8538164183687924       -0.1946060569702309
+       -5.2431596155228277        0.0471109633197948        0.1977283473495741        0.1283355164991325
+       -3.2824001418038629       -3.5812914022275302        0.0941248082133130        0.1235072004109040
