21
s                      x[A]                      y[A]                      z[A]                      q[e]
N       -2.0197678679561708        1.5174768052541583       -0.4911809856831841        0.0707249461841811
O       -1.6982863179207603        0.1184833836008661        0.2164124810837745       -0.3496602100029151
N       -1.5396787543512120        0.2223225472522761       -0.2967980143705685        0.9824851761690530
N       -3.1097785671853209       -0.5048770906683271        0.0691270102659461        0.1071394941056757
O       -1.5866757517205969        0.0811064284779121       -0.4127826702086209       -0.8194842575378962
N       -0.6222677605211153       -0.3344476190790878        0.2420785451342496        0.3116552922920345
N       -0.8451938254943950       -1.8242999361162819        0.4618610146515675        0.0918298459672651
N       -1.3966315167292065       -0.6725623794446772        0.2127441082316886        0.5593901217632046
O       -1.0560471904467461       -0.5736882053654232        0.2041046744692165       -0.9963138680841535
N        1.3046691798387622       -0.4724948534966143        0.0173813155554359        0.9989733053171830
O        1.3556124845353068       -0.5597975456945611        0.0247101416196461       -0.8354521971080898
N        1.7570050255228566       -1.2121125040702039       -0.1322338833192246        0.2899344186932475
O        1.4866447842875610       -0.9356571658428550       -0.1053677887973901       -0.8678253524624289
N        0.2438300521010451        0.2884565074862587        0.1398896230532401        0.9219570073558310
O        0.4642271515708879        0.2435049347643106        0.2817329875352531       -0.9704818863270434
O        0.4865745347393380        0.3817198237216353       -0.3784945796514259       -0.3320651923316272
N        0.8233748799126722       -0.1763651671065323        0.0019701808591942        0.9769593393400061
O        0.8850632088724586        1.0597421073841964        0.5580745359197221       -0.1970026432733326
O        0.7969186432094710        1.1036648866321033       -0.4419031027598546       -0.1946060569702309
N        2.0998803560124037        1.5948153946778514       -0.0646965392896942        0.1283355164991325
N        0.0210025929561036        2.1862678005726055        0.2129005934033376        0.1235072004109040

        RMSE         1.554007901E+00 kcal/mol

Coordinates in bohr
s                   x[bohr]                   y[bohr]                   z[bohr]                      q[e]
+       -3.8168081074370326        2.8676155636650638       -0.9281975409736404        0.0707249461841811
-       -3.2092960234824397        0.2239011454231982        0.4089603193791568       -0.3496602100029151
+       -2.9095711669098510        0.4201287258209587       -0.5608669617400712        0.9824851761690530
+       -5.8766298027989130       -0.9540794283810783        0.1306311172743498        0.1071394941056757
-       -2.9983826206568507        0.1532689368372872       -0.7800461960294736       -0.8194842575378962
+       -1.1759156440868870       -0.6320144033709202        0.4574621511530134        0.3116552922920345
+       -1.5971848531124029       -3.4474272499499850        0.8727908257175280        0.0918298459672651
+       -2.6392510648009733       -1.2709586994366875        0.4020280993626497        0.5593901217632046
-       -1.9956399655035548       -1.0841135895460561        0.3857019356725438       -0.9963138680841535
+        2.4654674342209466       -0.8928858687969211        0.0328459260999337        0.9989733053171830
-        2.5617363280231653       -1.0578640470661844        0.0466954001824080       -0.8354521971080898
+        3.3202582992912402       -2.2905606659355722       -0.2498858239790808        0.2899344186932475
-        2.8093514881438213       -1.7681357907650708       -0.1991162632721507       -0.8678253524624289
+        0.4607720196270884        0.5451037982551046        0.2643530753641555        0.9219570073558310
-        0.8772621764703780        0.4601576369020218        0.5323981869486525       -0.9704818863270434
-        0.9194926102794145        0.7213459234919309       -0.7152510955114784       -0.3320651923316272
+        1.5559530216166786       -0.3332818639019497        0.0037231022414962        0.9769593393400061
-        1.6725270684878237        2.0026223465716511        1.0546080304802521       -0.1970026432733326
-        1.5059579799373430        2.0856243700191377       -0.8350758382061726       -0.1946060569702309
+        3.9681987690923246        3.0137643166050729       -0.1222587405224441        0.1283355164991325
+        0.0396891486115056        4.1314473799892779        0.4023238134797616        0.1235072004109040
