21
s                      x[A]                      y[A]                      z[A]                      q[e]
N -1.8290271627821826 0.0298758325900217 -1.6893693357014032 0.0707249461841811
O -1.2216347549296434 0.8151557525087765 -0.3908033208178455 -0.3496602100029151
N -1.4704969864328072 0.3336599132278875 -0.3189107038683375 0.9824851761690530
N -2.4120506886791357 1.7984249119521740 -0.0793710584024219 0.1071394941056757
O -1.5863830423595782 0.3378543447753375 -0.1695134552063496 -0.8194842575378962
N -0.5924723070969063 0.2077421740314391 0.2473384709773304 0.3116552922920345
N -0.4429892948187668 1.1007548037473693 1.5813653988115792 0.0918298459672651
N -1.1133390954458746 0.8081292083942129 0.5002772479215716 0.5593901217632046
O -0.8582267418865958 0.6067756418452047 0.3774817776083259 -0.9963138680841535
N 1.1751160453553282 -0.6621282981782116 0.1737873752608157 0.9989733053171830
O 1.2627104896145382 -0.6114005785745963 0.1679969201463105 -0.8354521971080898
N 1.7402984015772838 -0.6101530910151344 0.9557117894555227 0.2899344186932475
O 1.5776339907103742 -0.3793077625162152 0.3173992197792387 -0.8678253524624289
N -0.1121658054457634 -0.7476652732728492 0.1458145005030757 0.9219570073558310
O 0.0898628446074267 -0.7848786473457985 -0.0234800374206238 -0.9704818863270434
O 0.0700254462604079 -1.0604774965681127 0.5964875632766624 -0.3320651923316272
N 0.6119023708339556 -0.6811746316169228 0.2333699764458720 0.9769593393400061
O 0.7726002887692638 1.1624281571274069 -0.6676147193562401 -0.1970026432733326
O 0.9897838200516259 0.3546127596660910 -1.2243263796287565 -0.1946060569702309
N 2.1387758176225011 1.2278546702344437 -1.1984067627618022 0.1283355164991325
N -1.2416249830959636 -2.2966176096485045 0.1183834795953793 0.1235072004109040
