21
s                      x[A]                      y[A]                      z[A]                      q[e]
N 1.3327209797946429 1.3632815794642175 -0.2632774574619286 0.0707249461841811
O 0.5031305288453974 -0.3668231821572205 0.2190055987693003 -0.3496602100029151
N 0.9874179748242409 -0.1783331863463983 0.3889361523254982 0.9824851761690530
N -0.4119977701121472 0.0798245578125439 0.3385357980636282 0.1071394941056757
O 0.9704108577025282 -0.0081672627595516 0.4696890193896742 -0.8194842575378962
N 0.1558017043128538 -0.2025490343290797 -0.1092852137150140 0.3116552922920345
N 0.7394987308455101 1.3205554917882336 0.5040134394476505 0.0918298459672651
N 0.3657873282641830 0.4689554410629734 -0.0783373688496543 0.5593901217632046
O 0.5818287577602972 -0.3685237916223415 -0.3035626904822611 -0.9963138680841535
N -0.2719556310499324 0.2429796697174621 -0.2985379801828199 0.9989733053171830
O -0.2030730432435695 0.2728503349126282 -0.3666742409372299 -0.8354521971080898
N -0.7539102561175227 -0.3010677824497028 -0.4109698680039375 0.2899344186932475
O 0.1128629138258081 0.2184232851407509 -0.6360941756632295 -0.8678253524624289
N -0.7747884074411147 -0.0463087950049088 0.4039358634002728 0.9219570073558310
O -0.9291418526541081 0.1642107978984379 0.3518055825867656 -0.9704818863270434
O -0.8661593310857201 -0.4577638652314365 0.5467212854307435 -0.3320651923316272
N -0.4159848002315106 0.0479747941409208 0.2136643131306177 0.9769593393400061
O 1.1368141539606829 0.4199670488475393 0.0053434699913103 -0.1970026432733326
O 0.8779723117779528 -0.5396389276580377 -0.1423709365825603 -0.1946060569702309
N -0.2759319897647520 0.1894620125028607 0.3270143564670231 0.1283355164991325
N -0.8019109304948381 -0.3870895921991570 0.9221046192020040 0.1235072004109040
