25
s                      x[A]                      y[A]                      z[A]                      q[e]
N        1.9324370105563846        1.3132765172662930       -0.5018224923071197        0.1158659338886357
O        1.8148996969128877       -0.3574615231344557       -0.4554953963093939       -0.2341991647481463
N        3.3585657326946423       -0.5368331672827257        0.0318568524461418        0.0569852111266852
N        2.1182592940937375       -0.3830190122260274        0.0814330709710283        0.3189271149812888
O        1.9184044276090411       -0.1151746597749480        0.2947164267216172       -0.2877498234141676
N        1.3128764870787570       -0.7898240929430284        0.0622397097957360        0.5692545008206258
O        0.7418095724150995       -0.6570956852309034        0.5735457711539840       -0.2058946535748549
O        1.0369956404084799       -0.6395310986665244        0.0420202279616410       -0.9992971180892700
N        0.5314865872394634       -0.6034522380662123        0.1321934398576212        0.6691943173322236
N        0.8403249923185615       -2.0167441910099013        0.6256957882584943        0.0628076875181509
N       -1.5384605795249593       -0.9809074130863422       -0.1028176633133254        0.7576134719858190
O       -1.3287596370037396       -0.8060718546924228       -0.0282683800734672       -0.9235083265987739
N       -1.0635991926902895       -0.4596868518727495       -0.0288053742135838        0.9955526175656415
O       -1.4206622092691068       -0.8655798525009162       -0.1195952767162215       -0.9936641819349231
O       -0.3105164169054611        0.0911984427497534       -0.0343701101038444       -0.9934394819660318
N       -0.5952958403309412       -0.1549781427028498        0.0655600641039538        0.8475065253219278
N       -0.1183546423702125        0.2500119284000826        0.0691575960718003        0.9207393412409772
O       -0.4082673145425977        0.2958156617724673        0.2475066815596909       -0.6738758902636315
N       -2.1011347762815351        1.6963988911520571       -0.0590258563156615        0.1207489421105395
N       -0.4350180119142772        0.9145441882371249        0.1435464033683725        0.4308753055723465
O       -0.7524331416841654        0.9277636388544833       -0.1212404635471008       -0.7095764258838037
N       -0.9765538219926424        0.8582291037115403       -0.0031702818362117        0.9977500474782615
O       -0.8336063890927644        0.9552444625033528        0.1406507861625049       -0.9963537733476465
O       -0.0669346682537797        2.2024516513123102       -0.1305078907108067       -0.1586318904925156
N       -0.0687043172850678        2.1683000497978702        0.0224232336713951        0.3123697133706422

        RMSE         4.478128549E-01 kcal/mol

Coordinates in bohr
s                   x[bohr]                   y[bohr]                   z[bohr]                      q[e]
+        3.6517767046500249        2.4817329446283827       -0.9483070740551242        0.1158659338886357
-        3.4296633723417780       -0.6755043791131288       -0.8607615504316288       -0.2341991647481463
+        6.3467694091404780       -1.0144676612264394        0.0602007263423293        0.0569852111266852
+        4.0029299285427928       -0.7238010339505753        0.1538862016902136        0.3189271149812888
-        3.6252589660467756       -0.2176485635674360        0.5569333311774176       -0.2877498234141676
+        2.4809769971320241       -1.4925512229504725        0.1176160056419159        0.5692545008206258
-        1.4018169291075142       -1.2417308833064518        1.0838444278955404       -0.2058946535748549
-        1.9596377536657761       -1.2085386251928791        0.0794067225768066       -0.9992971180892700
+        1.0043640892368351       -1.1403594597397182        0.2498093969130849        0.6691943173322236
+        1.5879840918595345       -3.8110941861167227        1.1823936776610060        0.0628076875181509
+       -2.9072691501153063       -1.8536463651645148       -0.1942972245217179        0.7576134719858190
-       -2.5109918004998271       -1.5232550428085176       -0.0534194963492024       -0.9235083265987739
+       -2.0099111814426949       -0.8686822535133975       -0.0544342682049985        0.9955526175656415
-       -2.6846624923064675       -1.6357088609409147       -0.2260023188920020       -0.9936641819349231
-       -0.5867909854098046        0.1723400798652790       -0.0649500949980968       -0.9934394819660318
+       -1.1249461018497513       -0.2928662451405067        0.1238905659239314        0.8475065253219278
+       -0.2236578597562085        0.4724540727737281        0.1306889160707407        0.9207393412409772
-       -0.7715134104616556        0.5590105843710279        0.4677198423687192       -0.6738758902636315
+       -3.9705692798472056        3.2057293038077330       -0.1115427027572255        0.1207489421105395
+       -0.8220649021591344        1.7282380453973167        0.2712633886607211        0.4308753055723465
-       -1.4218925655008789        1.7532191865931386       -0.2291112714275738       -0.7095764258838037
+       -1.8454192703351897        1.6218179589119535       -0.0059909644109537        0.9977500474782615
-       -1.5752877718171605        1.8051504169915065        0.2657914651774679       -0.9963537733476465
-       -0.1264881912980201        4.1620304255426079       -0.2466241706546064       -0.1586318904925156
+       -0.1298323433053365        4.0974932519345453        0.0423737704860810        0.3123697133706422
