25
s                      x[A]                      y[A]                      z[A]                      q[e]
N 0.1188297383288584 -0.0209509134356679 0.2004680723198731 0.1158659338886357
O -0.1993061001306573 0.4678962890471983 0.3215358173753876 -0.2341991647481463
N -0.0802943774740903 -0.0059557686875912 -0.4014214315368956 0.0569852111266852
N -0.4861604000118973 -0.0568720225764801 0.1668474545610718 0.3189271149812888
O -0.2047187970922477 -0.3211364564878680 0.2508220719682905 -0.2877498234141676
N -0.0370378305275620 0.1090360925496962 -0.5054845905202920 0.5692545008206258
O -0.1165613128502793 -0.4590777896315402 0.0330268718732284 -0.2058946535748549
O -0.0174051116256000 0.0983294257451207 -0.1921720234760451 -0.9992971180892700
N -0.1834410170038368 -0.0279725721966064 0.2767241309847177 0.6691943173322236
N 0.0270451128781315 -0.0823835741164788 0.4530594734473800 0.0628076875181509
N 0.0117992080230991 -0.0046886302150569 0.0965469612388930 0.7576134719858190
O -0.0120530990729900 -0.0551081991896820 -0.1851119179944195 -0.9235083265987739
N 0.0504638790993102 -0.0147924719022701 -0.6150310315645134 0.9955526175656415
O 0.0135353190647788 0.0265375215425739 -0.0686575312666613 -0.9936641819349231
O -0.0799995070911845 0.0840319792249536 -0.1260114169257038 -0.9934394819660318
N -0.0613816116190670 -0.0541703392712397 0.2398789528172126 0.8475065253219278
N -0.1039509064008947 0.0018409728795885 -0.3836602943246838 0.9207393412409772
O 0.1233249627286473 -0.2001520442815471 -0.2268418459717978 -0.6738758902636315
N -0.0422999397655425 0.0027824484045223 0.2257297872681091 0.1207489421105395
N 0.2922085598776736 0.0666225626298311 -0.5094500056007589 0.4308753055723465
O 0.3812755348951942 -0.1653362214906862 -0.1742813498918667 -0.7095764258838037
N 0.4892990653292234 -0.0145748395424164 0.0147099759632200 0.9977500474782615
O 0.3491481411865049 0.1040493211470341 -0.1124074317089688 -0.9963537733476465
O -0.0303143919789426 -0.3335260776702623 -0.0600251927128336 -0.1586318904925156
N -0.0038319433818871 -0.1831134044393413 -0.0503322642392966 0.3123697133706422
