25
s                      x[A]                      y[A]                      z[A]                      q[e]
N -1.8721347361831711 1.2435003719939879 0.5612171196636078 0.1158659338886357
O -1.7192485036922107 -0.4392928643052875 0.4677063560471175 -0.2341991647481463
N -3.2887878982245584 -0.6346701027382009 0.1139561851345322 0.0569852111266852
N -2.0987296228561294 -0.5056416167622975 0.0025631253111804 0.3189271149812888
O -1.8841857676255045 -0.2561656669126707 -0.2755788926452312 -0.2877498234141676
N -1.2981446843406075 -0.9133959716783889 -0.3413577812589215 0.5692545008206258
O -0.8855260731011058 -0.4886302615333359 0.3048919882194511 -0.2058946535748549
O -1.0835252239655113 -0.7008372671594352 -0.3772018916730414 -0.9992971180892700
N -0.6682773848371804 -0.3923198320503215 -0.1577212890163898 0.6691943173322236
N -0.8380734083125755 -2.0577097888568305 -0.6260461838286602 0.0628076875181509
N 0.5893880380600682 1.6258422176830627 -0.0911209319240591 0.7576134719858190
O 0.5572149831392555 1.2731886796963110 -0.0098937944133362 -0.9235083265987739
N 0.6331480805503088 0.8538814860795119 -0.0644419600031778 0.9955526175656415
O 0.6023900111563681 1.4252330592754405 -0.1351171590632804 -0.9936641819349231
O 0.4883843434584122 -0.2065985739434491 -0.1925099496205309 -0.9934394819660318
N 0.4926332738499237 0.2159952313935856 -0.0271348970297372 0.8475065253219278
N 0.4438021627728990 -0.4856210123943980 -0.0968225131106837 0.9207393412409772
O 0.6530924501936711 -0.3059394891339671 0.1974408929949882 -0.6738758902636315
N 2.8171049715001999 -0.0969740654887704 0.3221717310528320 0.1207489421105395
N 1.1183234101353920 -0.7272298711229783 0.1320032211101922 0.4308753055723465
O 1.4284914604570456 -0.4762990256224342 -0.1194636131959375 -0.7095764258838037
N 1.5440349986953419 -0.2675218933893008 0.0980158208849916 0.9977500474782615
O 1.4760521451266893 -0.4565456255103827 0.2297082527997567 -0.9963537733476465
O 1.8065615174559111 -1.9386687518743746 -0.1707000288057433 -0.1586318904925156
N 1.7757377502522891 -1.8878306900365469 -0.0061057463258943 0.3123697133706422
