21
s                      x[A]                      y[A]                      z[A]                      q[e]
N -0.5275666074722543 -0.1746218255254597 -0.2485986134103337 0.0707249461841811
O -0.4014525633593878 -0.0728983505461083 -0.5562538954399969 -0.3496602100029151
N -0.0358976350974613 -0.0293974249097619 0.5544427637623931 0.9824851761690530
N -0.4058567629008966 0.3742114391003514 -0.1718490720627892 0.1071394941056757
O -0.2117443123992037 -0.0738452902277259 0.6239020181614960 -0.8194842575378962
N -0.4739992408477274 -0.0606144989203703 -0.4085022170784632 0.3116552922920345
N -0.4860517981099260 -0.0445508517359264 -0.2526839502759132 0.0918298459672651
N -0.3471724071748213 0.7396308454858330 -0.1683727358463964 0.5593901217632046
O -0.3799730503677743 0.3889084860104454 -0.2463467984558426 -0.9963138680841535
N -0.4592953674286862 0.6544890410995794 -0.3011168984722834 0.9989733053171830
O -0.4540034435572082 0.5650817739775220 -0.3289980319782654 -0.8354521971080898
N -0.5129955561610904 -0.2214985251299353 -0.3038786812529568 0.2899344186932475
O -0.4468135984536255 0.1585758292949372 -0.2299338016823551 -0.8678253524624289
N -0.2948002923561316 0.5195268268813961 -0.1961438230885106 0.9219570073558310
O -0.3409283718974782 0.4068257446938313 -0.4365298932690166 -0.9704818863270434
O -0.8079159183979612 0.4258243098513742 0.0508623666438385 -0.3320651923316272
N -0.5496731801703894 -0.1774126531918762 -0.3309098251155062 0.9769593393400061
O -0.8295203414229377 0.2990968620472769 0.1472577846610197 -0.1970026432733326
O -0.3136194626008253 0.3432797767319525 -0.7142622415810206 -0.1946060569702309
N -0.4617209533459557 0.0130519660953055 -0.2492996767203196 0.1283355164991325
N -0.4062548791106659 0.3362492346588227 -0.1975849768063880 0.1235072004109040
