21
s                      x[A]                      y[A]                      z[A]                      q[e]
N -2.0682125012368942 1.5654745896446074 0.0463453114164991 0.0707249461841811
O -1.6932737905527457 0.0378519453446506 0.2924282297903797 -0.3496602100029151
N -1.5604430287310413 0.2758064074127470 -0.1822418141327315 0.9824851761690530
N -3.1034508385168915 -0.5581530236812171 0.0106257183228795 0.1071394941056757
O -1.6115990957495578 0.1680242382446662 -0.3289548119562256 -0.8194842575378962
N -0.6314741352486322 -0.3434189530433810 0.1259955486246364 0.3116552922920345
N -0.8200505359830262 -1.8835981420978456 -0.0165262599541832 0.0918298459672651
N -1.3949247174374515 -0.6962061363464331 0.0395518831748951 0.5593901217632046
O -1.0563112454255479 -0.5923747490262110 0.0583528558938049 -0.9963138680841535
N 1.3081242885164157 -0.4575209373706291 0.0842779564474915 0.9989733053171830
O 1.3591859268490736 -0.5442938053127626 0.0999282192044030 -0.8354521971080898
N 1.7809076104593782 -1.1955843647810598 0.0066474030147720 0.2899344186932475
O 1.5059919806495039 -0.9228875177922549 -0.0023727777572976 -0.8678253524624289
N 0.2316935532061259 0.2912986489702826 0.0784218264954012 0.9219570073558310
O 0.4387446775111155 0.2545802136437367 0.2417558581122803 -0.9704818863270434
O 0.5201252901873554 0.3673959075987355 -0.4187516944163638 -0.3320651923316272
N 0.8268998041006757 -0.1696561181630254 0.0129562053774441 0.9769593393400061
O 0.8134944074528887 1.1014230227090855 0.5144585852013784 -0.1970026432733326
O 0.8420872483899339 1.0758890161317614 -0.4896266618528152 -0.1946060569702309
N 2.0893417104047800 1.6093503586696580 0.0008255289313132 0.1283355164991325
N -0.0090383876332772 2.1921059377750600 -0.0056548081830839 0.1235072004109040
