25
s                      x[A]                      y[A]                      z[A]                      q[e]
N -1.7595201897763038 1.0867869338193474 -0.9894773601571103 0.1158659338886357
O -1.8658381047676431 -0.0035102278838430 0.3028451422398020 -0.2341991647481463
N -3.3082333426950750 -0.5220640793288512 -0.1064133621527303 0.0569852111266852
N -2.0887946670893971 -0.4799171991771983 -0.0285649852409006 0.3189271149812888
O -1.8065309459445988 -0.4623482810718519 -0.3507063184147929 -0.2877498234141676
N -1.3944812909857431 -0.7332504510661886 0.2757621851635823 0.5692545008206258
O -0.7806471296292834 -0.4214959299274643 0.7960395520810679 -0.2058946535748549
O -1.1305532238633218 -0.6033918780183994 0.2039162194128387 -0.9992971180892700
N -0.6926901943710402 -0.3022006467270601 0.3162224893612512 0.6691943173322236
N -0.9696029141188268 -1.8367594181504809 1.1045391682999104 0.0628076875181509
N 0.7056051303912590 1.5799553919127376 0.1116999752250648 0.7576134719858190
O 0.6586976981016079 1.2459496351894013 0.1919709711116316 -0.9235083265987739
N 0.6856325351535798 0.8081130136943590 0.1108217688319231 0.9955526175656415
O 0.6809784733195162 1.3904701866080729 0.0720061133118052 -0.9936641819349231
O 0.4462480354306396 -0.2063412709262444 0.0015185657660049 -0.9934394819660318
N 0.5121715662275460 0.1916432987839568 0.1680264527115223 0.8475065253219278
N 0.3996174437774745 -0.4747398405815106 0.0985121288704650 0.9207393412409772
O 0.6908734880116065 -0.3317225287668009 0.3151507549264579 -0.6738758902636315
N 2.7687677615309192 -0.2694925264120822 -0.4397276827763517 0.1207489421105395
N 1.0754486001497592 -0.7727493512916899 -0.0107307404167228 0.4308753055723465
O 1.2884754220388408 -0.5191914198902405 -0.3345555394567438 -0.7095764258838037
N 1.4795656671668214 -0.3485496042566289 -0.1663589021666020 0.9977500474782615
O 1.4573131812573605 -0.5367642912500959 -0.0444480677181792 -0.9963537733476465
O 1.4813265912507749 -1.9854816559117365 -0.6429399632562891 -0.1586318904925156
N 1.5383476969984708 -1.9332839180356423 -0.4829882897436660 0.3123697133706422
