25
s                      x[A]                      y[A]                      z[A]                      q[e]
N       -1.7592568834334197        1.0871866988379100       -0.9898965311900191        0.1158659338886357
O       -1.8662479219200354       -0.0032861202264693        0.3028852051404210       -0.2341991647481463
N       -3.3082603733882086       -0.5215153690186662       -0.1062695938295645        0.0569852111266852
N       -2.0878751168085876       -0.4790588004676340       -0.0278916181608986        0.3189271149812888
O       -1.8073595516168786       -0.4632194023293102       -0.3513053718921052       -0.2877498234141676
N       -1.3927744909879725       -0.7333501192083915        0.2770802777874526        0.5692545008206258
O       -0.7814549924961086       -0.4198707732665051        0.7954036685920644       -0.2058946535748549
O       -1.1317980153925418       -0.6024846829342262        0.2027362996732731       -0.9992971180892700
N       -0.6913053980127740       -0.3031781495827545        0.3164228153833466        0.6691943173322236
N       -0.9689619869023384       -1.8374269919874382        1.1057696594391511        0.0628076875181509
N        0.7058341253658126        1.5802092314083989        0.1106054744196538        0.7576134719858190
O        0.6574800407860562        1.2446972429115861        0.1930863076357281       -0.9235083265987739
N        0.6857935358063857        0.8082057320979454        0.1097045969844941        0.9955526175656415
O        0.6797854121544670        1.3888773661593152        0.0733276095990582       -0.9936641819349231
O        0.4454046617593838       -0.2056517952555555        0.0017644893162013       -0.9934394819660318
N        0.5125479266685540        0.1912915741361082        0.1672798612642566        0.8475065253219278
N        0.4000602256559441       -0.4752253087460436        0.0988715398795250        0.9207393412409772
O        0.6904797127640868       -0.3305595125774551        0.3148404594549445       -0.6738758902636315
N        2.7684957631351796       -0.2692415125458970       -0.4400620872414633        0.1207489421105395
N        1.0751879321674396       -0.7732424339875029       -0.0104342985679353        0.4308753055723465
O        1.2882642915746902       -0.5190704700639965       -0.3342742126038752       -0.7095764258838037
N        1.4790012528652479       -0.3486299216676232       -0.1665738631059906        0.9977500474782615
O        1.4571811102137668       -0.5363842910681468       -0.0444573990983905       -0.9963537733476465
O        1.4815241272116733       -1.9848732106962905       -0.6433983679157086       -0.1586318904925156
N        1.5378500170267757       -1.9335934889380741       -0.4820773008758166        0.3123697133706422

        RMSE         5.755349730E-01 kcal/mol

Coordinates in bohr
s                   x[bohr]                   y[bohr]                   z[bohr]                      q[e]
+       -3.3245136940156503        2.0544851080442501       -1.8706333364898589        0.1158659338886357
-       -3.5266974546336720       -0.0062098672433545        0.5723700851685072       -0.2341991647481463
+       -6.2517060574085672       -0.9855212176623536       -0.2008204278015200        0.0569852111266852
+       -3.9455121549265026       -0.9052899308741769       -0.0527075195199441        0.3189271149812888
-       -3.4154145627861614       -0.8753578064006582       -0.6638709392781894       -0.2877498234141676
+       -2.6319623424912000       -1.3858308793757101        0.5236058397840615        0.5692545008206258
-       -1.4767359151893475       -0.7934407695578950        1.5030950928234241       -0.2058946535748549
-       -2.1387882784286072       -1.1385310455289834        0.3831160820712315       -0.9992971180892700
+       -1.3063778712947611       -0.5729236699344925        0.5979524609208292        0.6691943173322236
+       -1.8310727812248748       -3.4722337903800535        2.0896018141807691        0.0628076875181509
+        1.3338331869434519        2.9861626682820863        0.2090140546294772        0.7576134719858190
-        1.2424572100404887        2.3521368982153530        0.3648802400074227       -0.9235083265987739
+        1.2959619612834257        1.5272874866902579        0.2073116430044206        0.9955526175656415
-        1.2846082530534138        2.6245978438883162        0.1385690995767125       -0.9936641819349231
-        0.8416928257274148       -0.3886255702417275        0.0033344015589168       -0.9934394819660318
+        0.9685752075748096        0.3614886852249566        0.3161131240940266        0.8475065253219278
+        0.7560042601785917       -0.8980456814161610        0.1868401319745839        0.9207393412409772
-        1.3048175523089118       -0.6246669469362224        0.5949622415831547       -0.6738758902636315
+        5.2316987718158563       -0.5087927203157632       -0.8315968230836953        0.1207489421105395
+        2.0318107251937896       -1.4612164288187843       -0.0197179666046545        0.4308753055723465
-        2.4344666882831132       -0.9809010282336097       -0.6316867126243875       -0.7095764258838037
+        2.7949073071243182       -0.6588150710916237       -0.3147789809298263        0.9977500474782615
-        2.7536732134945980       -1.0136194081166530       -0.0840123085461339       -0.9963537733476465
-        2.7996748486880056       -3.7508667619741405       -1.2158467049272421       -0.1586318904925156
+        2.9061153542112641       -3.6539621320614306       -0.9109940699552245        0.3123697133706422
