25
s                      x[A]                      y[A]                      z[A]                      q[e]
N        2.2165282664344508        0.7544894516364551       -0.4080221663785981        0.1158659338886357
O        1.4338948722433007       -0.7415297090672273       -0.6138070195187993       -0.2341991647481463
N        2.8078621929704699       -1.5700217506404830       -0.5325769248779049        0.0569852111266852
N        1.7741671141548148       -1.0418241402494357       -0.2153043748105934        0.3189271149812888
O        1.6795261415164839       -0.7986718568031588        0.1275517916446566       -0.2877498234141676
N        0.9186652872253983       -1.1718812353526797        0.1007200308891595        0.5692545008206258
O        0.4814022438789305       -0.6101034309109002       -0.4274238712759681       -0.2058946535748549
O        0.8193503546313974       -0.8958026642247917        0.1809988115082337       -0.9992971180892700
N        0.4945293411556106       -0.4544381496378169        0.0686403737344382        0.6691943173322236
N        0.0316646114843855       -2.1179217977701703        0.2445485990581825        0.0628076875181509
N        0.0948473761303146        1.8927813195293988        0.2259951476813868        0.7576134719858190
O       -0.0296420855740205        1.5550830517831773        0.1763995322354366       -0.9235083265987739
N       -0.2219640383216679        1.1906264571213099        0.2978224187488777        0.9955526175656415
O        0.0294656559506833        1.7094140840225900        0.2927067759993937       -0.9936641819349231
O       -0.4357290561804014        0.1644956481160825        0.4837414082847177       -0.9934394819660318
N       -0.3413457089988388        0.5605990058378059        0.2833757437748116        0.8475065253219278
N       -0.5360411851424993       -0.1067841969869968        0.4106531060499781        0.9207393412409772
O       -0.7539616325587828        0.1492361315084080        0.1878457983202669       -0.6738758902636315
N       -2.8180150922278817       -0.0804284027567979       -0.5361227082014516        0.1207489421105395
N       -1.2743879387611945       -0.0605773509781323        0.5262725377656101        0.4308753055723465
O       -1.4906656072136220        0.0708067326176524        0.1647056358047891       -0.7095764258838037
N       -1.5911720955303013       -0.0997345279105578       -0.0903426511605919        0.9977500474782615
O       -1.5853187564258922       -0.2604622813393215        0.0880582008749725       -0.9963537733476465
O       -2.1616514964428033        0.0346882798519576        1.5167099361495640       -0.1586318904925156
N       -2.1459611041664921       -0.1265056585275337        1.4504059634101358        0.3123697133706422

        RMSE         4.085571601E+00 kcal/mol

Coordinates in bohr
s                   x[bohr]                   y[bohr]                   z[bohr]                      q[e]
+        4.1886313728969311        1.4257784281397596       -0.7710501475715376        0.1158659338886357
-        2.7096686012381803       -1.4012880640274819       -1.1599271607740782       -0.2341991647481463
+        5.3060905427416065       -2.9669111197223565       -1.0064245287577680        0.0569852111266852
+        3.3526899465464743       -1.9687622959619990       -0.4068663020049427        0.3189271149812888
-        3.1738444280130813       -1.5092710734688426        0.2410379530198611       -0.2877498234141676
+        1.7360257938210548       -2.2145345863797528        0.1903332737281641        0.5692545008206258
-        0.9097183971120359       -1.1529283926237832       -0.8077140561945206       -0.2058946535748549
-        1.5483477710500881       -1.6928216978403154        0.3420381827839262       -0.9992971180892700
+        0.9345250157872045       -0.8587636437752965        0.1297115075071572        0.6691943173322236
+        0.0598374435745153       -4.0022921529229016        0.4621298765843591        0.0628076875181509
+        0.1792355646045807        3.5768383092932461        0.4270689348002167        0.7576134719858190
-       -0.0560154235222831        2.9386810702113588        0.3333468045838449       -0.9235083265987739
+       -0.4194512421285784        2.2499579216834338        0.5628028054567955        0.9955526175656415
-        0.0556820198537581        3.2303244538030511        0.5531356417045866       -0.9936641819349231
-       -0.8234085810851863        0.3108517237690789        0.9141387772013930       -0.9934394819660318
+       -0.6450499041080310        1.0593785872373873        0.5355025463323050        0.8475065253219278
+       -1.0129710318851575       -0.2017928868323630        0.7760219030030477        0.9207393412409772
-       -1.4247809946391674        0.2820154165736988        0.3549771126432906       -0.6738758902636315
+       -5.3252767417174791       -0.1519876539183654       -1.0131250881394869        0.1207489421105395
+       -2.4082441818453799       -0.1144746027544049        0.9945109637266649        0.4308753055723465
-       -2.8169497422730387        0.1338053324858847        0.3112485429904522       -0.7095764258838037
+       -3.0068794790230893       -0.1884709430027840       -0.1707228681412935        0.9977500474782615
-       -2.9958182711963235       -0.4922023777432628        0.1664058827542489       -0.9963537733476465
-       -4.0849293069629748        0.0655513486834367        2.8661663910833055       -0.1586318904925156
+       -4.0552787627597482       -0.2390610479377273        2.7408700415759646        0.3123697133706422
