21
s                      x[A]                      y[A]                      z[A]                      q[e]
N 0.0269171515354291 -0.0450822623092338 0.3786377534448276 0.0707249461841811
O 0.1032125704950574 0.2918535998004962 0.3150099246217479 -0.3496602100029151
N 0.3750149451109413 -0.1816864521017479 0.3117746631218256 0.9824851761690530
N 0.0333168419932784 -0.0111918249862370 -0.1885833669132433 0.1071394941056757
O 0.2568309647284587 -0.3287898146535816 0.3223999713576433 -0.8194842575378962
N 0.1005444263254449 0.1264706418590680 0.2898971441674087 0.3116552922920345
N 0.0293831600764905 -0.0161071066315600 0.2433817140105541 0.0918298459672651
N 0.0901138553641283 0.0398054990274228 -0.5508272058329415 0.5593901217632046
O 0.0477904989712448 0.0583193618160380 -0.1973718256021245 -0.9963138680841535
N 0.2246763160926641 0.0848993185699182 -0.4266075124340734 0.9989733053171830
O 0.2011186348853768 0.0988985763367752 -0.3293074656125332 -0.8354521971080898
N 0.0334703930518006 0.0070196954243699 0.4286255111795270 0.2899344186932475
O 0.0354190780800707 -0.0031307824665996 0.0409937674156850 -0.8678253524624289
N -0.0002452784508987 0.0794080719992950 -0.3510368835973824 0.9219570073558310
O 0.1215481715040143 0.2406258028887229 -0.1780536850005312 -0.9704818863270434
O 0.2592736641105912 -0.4192653183414400 -0.1999033752505911 -0.3320651923316272
N 0.0908174668352551 0.0138904996328044 0.3959544044201631 0.9769593393400061
O 0.1994693644635203 -0.5133347253539332 -0.0951067298617470 -0.1970026432733326
O 0.2304540828712346 0.4906187356847521 -0.0743672652176608 -0.1946060569702309
N 0.0218620321363262 -0.0009054553816765 0.1842287037394949 0.1283355164991325
N 0.0376246122316619 0.0037908437795274 -0.1490688374557346 0.1235072004109040
