21
s                      x[A]                      y[A]                      z[A]                      q[e]
N 1.8181155974096861 1.2498010495661842 0.9909246910002770 0.0707249461841811
O 1.6672520563120812 0.0840377886625612 -0.0898723595947612 -0.3496602100029151
N 1.4266967215837101 0.0549499569933516 0.3994273517293835 0.9824851761690530
N 3.0616069863352657 -0.5549224791094922 0.0913469934608054 0.1071394941056757
O 1.4558990086471322 -0.1132939299279283 0.4804271703223565 -0.8194842575378962
N 0.5626358010981038 -0.5531481646574178 -0.1422212176740343 0.3116552922920345
N 0.9227450650517677 -1.7143011295872299 -0.9646359154282190 0.0918298459672651
N 1.3370864822929431 -0.8266768523681347 -0.3418340325738361 0.5593901217632046
O 1.0242386048022067 -0.6679523628899776 -0.2786084252990481 -0.9963138680841535
N -0.7964929617420825 0.8571769365042261 -0.0018123535654029 0.9989733053171830
O -0.7779464506890392 0.9560535731010016 0.0080709827351357 -0.8354521971080898
N -0.6789051751413043 1.7221865519251383 -0.1112652797855727 0.2899344186932475
O -0.6553675967590011 1.3352136790587827 -0.1192136392142728 -0.8678253524624289
N -0.4857323404658652 -0.4137803177171355 -0.0347549252559169 0.9219570073558310
O -0.5940158879520101 -0.2471039064326247 0.1419981099853085 -0.9704818863270434
O -0.8261852714621097 -0.2881358521374147 -0.4899162583814574 -0.3320651923316272
N -0.6372409454214986 0.3242135554962148 -0.0894462953787787 0.9769593393400061
O -1.3020575046469236 -0.6149799471299164 0.6664859693885606 -0.1970026432733326
O -1.5499782704732339 -0.6278380987085085 -0.3070039853157298 -0.1946060569702309
N -2.6909031924720379 -0.1953926765293361 0.4628376080757365 0.1283355164991325
N -1.4893387386829400 -2.0027317141225414 0.2505988583259897 0.1235072004109040
