21
s                      x[A]                      y[A]                      z[A]                      q[e]
N -1.7305642029669910 0.4129895929428845 -1.7550274626763018 0.0707249461841811
O -1.6574500086307924 0.4054828308120116 -0.1621009753584992 -0.3496602100029151
N -1.4675573474041563 -0.0178774440227802 -0.4546916985092572 0.9824851761690530
N -3.1442832205890188 0.0415372179688783 0.1135967206170316 0.1071394941056757
O -1.5241153594008141 -0.1744552128449550 -0.3936168637540153 -0.8194842575378962
N -0.6088912278567594 0.1127426151098392 0.5447042904643197 0.3116552922920345
N -1.0998312235234626 -0.2712982354539582 1.7949911630469599 0.0918298459672651
N -1.4372415070430595 0.0815400146687783 0.7082274508552898 0.5593901217632046
O -1.0910464824420609 0.0534012885048812 0.6137287801344431 -0.9963138680841535
N 1.0672353469455214 -0.7341632855877001 -0.0378402058903852 0.9989733053171830
O 1.0905341453261101 -0.8298485787689523 -0.0354568267132456 -0.8354521971080898
N 1.1950483122521931 -1.5919728029645328 -0.1822568368464360 0.2899344186932475
O 1.0520842511893858 -1.2325911368844626 -0.1419320200958057 -0.8678253524624289
N 0.3856406966314458 0.3672547146181200 0.1962316937507414 0.9219570073558310
O 0.6083348724480804 0.2562772301908324 0.2910950008367028 -0.9704818863270434
O 0.5270024390246445 0.3474849292044603 -0.3711516175118162 -0.3320651923316272
N 0.7240871487863807 -0.2801774627681974 0.0059824604589078 0.9769593393400061
O 1.3191038317720385 0.8755051471238944 0.4651228293666984 -0.1970026432733326
O 1.0806488538204611 0.9102634056455754 -0.5105796848896539 -0.1946060569702309
N 2.5180013870550351 0.9298548979058310 -0.3780416554338498 0.1283355164991325
N 0.8338865144940063 2.2184379104131029 0.1493715537403231 0.1235072004109040
