21
s                      x[A]                      y[A]                      z[A]                      q[e]
N       -1.7307217594323840        0.4126688587975306       -1.7547417937048404        0.0707249461841811
O       -1.6573391582956691        0.4066795945662524       -0.1631396393691898       -0.3496602100029151
N       -1.4677068432377811       -0.0193284424307057       -0.4531834196875086        0.9824851761690530
N       -3.1442808699138198        0.0410301548664998        0.1139131471032051        0.1071394941056757
O       -1.5238618722936608       -0.1729383775207495       -0.3949781579244935       -0.8194842575378962
N       -0.6088667374598846        0.1115697693049116        0.5457964028190595        0.3116552922920345
N       -1.0998048862687726       -0.2718022348526037        1.7953467816838091        0.0918298459672651
N       -1.4371725408374039        0.0800288026847204        0.7094186875928669        0.5593901217632046
O       -1.0910069663708086        0.0549625728321892        0.6122531198543010       -0.9963138680841535
N        1.0669624243951381       -0.7351879318442357       -0.0366381238324491        0.9989733053171830
O        1.0905267353803445       -0.8287447301488364       -0.0366093207658024       -0.8354521971080898
N        1.1948384269723391       -1.5925091365007642       -0.1814652830988973        0.2899344186932475
O        1.0521662339031395       -1.2315109148774732       -0.1430145371089987       -0.8678253524624289
N        0.3857338585610164        0.3659586307333744        0.1975859684713855        0.9219570073558310
O        0.6081808349849672        0.2574652638014349        0.2897065695910558       -0.9704818863270434
O        0.5268098021066745        0.3483564513116479       -0.3722244224440234       -0.3320651923316272
N        0.7239690980292973       -0.2813703724901551        0.0073241247859428        0.9769593393400061
O        1.3189832673476605        0.8759747860581752        0.4644798653862943       -0.1970026432733326
O        1.0803971474026939        0.9107327137679506       -0.5112762898147393       -0.1946060569702309
N        2.5181006312707446        0.9296436365021117       -0.3776817144203871        0.1283355164991325
N        0.8341392074151424        2.2181895829558314        0.1497944607613041        0.1235072004109040

        RMSE         9.227579330E-01 kcal/mol

Coordinates in bohr
s                   x[bohr]                   y[bohr]                   z[bohr]                      q[e]
+       -3.2705901246977143        0.7798311236325611       -3.3159814109967676        0.0707249461841811
-       -3.1319171061756128        0.7685130545424446       -0.3082892386137265       -0.3496602100029151
+       -2.7735639661796720       -0.0365254626257121       -0.8563925478078044        0.9824851761690530
+       -5.9418297056534124        0.0775357555828052        0.2152646501140474        0.1071394941056757
-       -2.8796815916624112       -0.3268061700952491       -0.7464005440151232       -0.8194842575378962
+       -1.1505913807002164        0.2108363078667943        1.0314057215880814        0.3116552922920345
+       -2.0783300264882749       -0.5136317841587894        3.3927137176045261        0.0918298459672651
+       -2.7158624972110497        0.1512325192224257        1.3406070278322457        0.5593901217632046
-       -2.0617043674074074        0.1038642098033666        1.1569907159817354       -0.9963138680841535
+        2.0162667682613153       -1.3893038419273613       -0.0692360197939381        0.9989733053171830
-        2.0607968623584725       -1.5661005678977540       -0.0691815898864025       -0.8354521971080898
+        2.2579173911505643       -3.0094061202757807       -0.3429196863355872        0.2899344186932475
-        1.9883060205313348       -2.3272183496304328       -0.2702583070951328       -0.8678253524624289
+        0.7289313499964075        0.6915615853336317        0.3733833666442640        0.9219570073558310
-        1.1492952128738489        0.4865388354034632        0.5474660732729846       -0.9704818863270434
-        0.9955262461882511        0.6582982870153989       -0.7034022156259221       -0.3320651923316272
+        1.3681033185701026       -0.5317129438244466        0.0138405899541094        0.9769593393400061
-        2.4925171393486010        1.6553524384564655        0.8777397363696154       -0.1970026432733326
-        2.0416547153169828        1.7210354025164025       -0.9661721621900610       -0.1946060569702309
+        4.7585205494441754        1.7567718672636612       -0.7137150028479081        0.1283355164991325
+        1.5762946525210806        4.1917708061300392        0.2830705059495039        0.1235072004109040
