21
s                      x[A]                      y[A]                      z[A]                      q[e]
N 2.0494051796060333 -1.5729370379617997 -0.5065196548783686 0.0690680479201058
O 1.8737684923316595 0.1082930101631086 0.4003797556408090 -0.3117950550350966
N 1.9969708517159177 0.3123240028170587 0.0970955884868461 0.5776243102962968
N 3.3369793617730283 0.4813840255842486 0.1400857631606411 0.0604184539076988
O 1.8701385444248324 0.3278053300318904 -0.2349463304470497 -0.3968494342195521
O 0.9417113948526016 0.0064495720366107 0.0751405372899208 -0.9828651838991298
N 0.7528950143409212 -0.0743165147807273 0.0645676169022378 0.7759263489545838
N 1.0905415737156370 1.2716922086235845 0.0762812148397132 0.9970342621901004
O 1.1256615491824604 1.2555067043539265 -0.2063778261266375 -0.3970377457969525
O 1.1632121018365449 1.2333298069690013 0.3448153053272572 -0.3893757401670396
N -1.7244330699969692 1.3392887416956141 0.0091536497060862 0.1691966627363242
O -1.3985328728934110 0.9593300477512565 0.0202310859313710 -0.6800109224217911
O -0.3897155459839974 -0.4443492066868567 -0.3810589298244749 -0.9821368279659007
N -0.2613796575202875 -0.4604199324993475 -0.2607208248634300 0.8921713087406896
O -0.5963395071528103 -0.5155446062694613 0.2823083599564983 -0.3335771210350215
N -0.7905637771081672 0.1782262742226886 -0.0863255016924229 0.9988617281482304
N -2.3826958947159733 -1.5655791568530493 -0.1160606549190282 0.0655379221577991
N -1.1492870215994664 -1.0017871448052160 -0.0612114040008934 0.9908754307264420
O -1.0089791074682375 -1.0612802946906257 -0.4132076537549775 -0.6595771554465193
O -1.0826592828529333 -1.1405301743911953 0.2941047383564305 -0.5578053818499882
N 0.0160036708714357 -2.2871035840572871 -0.1533930760720033 0.0943160920587207
