21
s                      x[A]                      y[A]                      z[A]                      q[e]
N -0.2323480385642998 1.6884141916145241 -0.0472098870375386 0.0690680479201058
O -0.5111147878311787 -0.1225629717902717 0.5206810131927126 -0.3117950550350966
N -0.3245979789415935 -0.2718293241628535 0.2178282611522083 0.5776243102962968
N -0.0709992021759544 0.4523256206008082 -0.3577858898450167 0.0604184539076988
O 0.0088304542886830 -0.2187239667911927 0.1056532081036451 -0.3968494342195521
O -0.0176881521614529 0.4141245850094423 0.1022035702292701 -0.9828651838991298
N -0.1019240714455187 0.3669145987107469 0.2837582453849572 0.7759263489545838
N 1.2492612606038296 0.4893657617670891 -0.0081078232759443 0.9970342621901004
O 1.2245596608453981 0.7694180547393413 0.0403902265366879 -0.3970377457969525
O 1.2208120933197637 0.2529269624479714 -0.1569385201413050 -0.3893757401670396
N -0.2970102326607261 0.1483832628097549 0.3678466868383921 0.1691966627363242
O 0.1199289588087204 0.1019150763478470 0.0945251263403020 -0.6800109224217911
O -0.1720306215364171 0.4491278724889418 0.4755083899609590 -0.9821368279659007
N -0.3225427659149814 0.3712114320685520 0.4256611161307129 0.8921713087406896
O -0.1899353590899238 -0.2472774494634964 0.5256826396477485 -0.3335771210350215
N 0.3519767466023269 0.0662908868252044 0.0129076463084989 0.9988617281482304
N 1.0690204582486074 -0.4161444512117799 0.8419148020002004 0.0655379221577991
N 0.1926841062239055 -0.0932253228255441 -0.1429329812130566 0.9908754307264420
O 0.1365458577888221 0.2827494132150424 -0.0917607190592698 -0.6595771554465193
O -0.0129867741842210 -0.4169909800141317 -0.0898883488149482 -0.5578053818499882
N -1.3200599821278816 0.3023806572979880 0.6143908856259486 0.0943160920587207
