13

C         1.738976       1.258277        0.033930
C         1.531864       -0.226964        0.095502
H         1.140630       1.697438        -0.771954
H         2.793649       1.464281        -0.150726
H         1.422066       1.736860        0.966169
C         0.174028       -0.786370        0.522654
O         2.440412       -1.030297        -0.133668
C         -1.036303       -0.066522        0.004424
H         0.119597       -0.777802        1.617648
H         0.121937       -1.826285        0.193211
F         -1.197863       1.202396        0.560947
F         -2.200386       -0.769742        0.290539
F         -0.998702       0.109274        -1.376380
