13

C         2.765772       0.663784        0.063522
C         1.479361       -0.103422        -0.081945
H         2.855203       1.440451        -0.703915
H         3.612463       -0.020394        -0.001988
H         2.787291       1.162115        1.040692
C         0.237939       0.751785        -0.309976
O         1.428762       -1.332027        -0.024328
C         -1.074456       0.086687        -0.000293
H         0.217288       1.066942        -1.360018
H         0.299773       1.661198        0.295651
F         -1.381109       -0.955711        -0.855458
F         -2.115418       1.015213        -0.121129
F         -1.131676       -0.398068        1.298404
