13

C         1.874923       1.222964        -0.013864
C         1.505993       -0.226340        -0.147756
H         1.625949       1.779900        -0.922354
H         2.940887       1.308548        0.199989
H         1.311589       1.681042        0.807586
C         0.149499       -0.582476        -0.759101
O         2.273596       -1.138371        0.168692
C         -1.034951       -0.041962        -0.008796
H         0.066448       -1.670971        -0.780837
H         0.092452       -0.203712        -1.784880
F         -0.975557       -0.325319        1.350661
F         -2.224836       -0.577372        -0.486551
F         -1.155037       1.344808        -0.118769
