13

C         1.670725       1.269636        -0.000292
C         1.556422       -0.226307        -0.000487
H         1.184183       1.698250        -0.882494
H         2.726952       1.540260        0.002211
H         1.180156       1.698171        0.879745
C         0.194059       -0.925910        -0.002849
O         2.550744       -0.959190        0.000806
C         -1.042225       -0.078828        -0.000010
H         0.154523       -1.580325        0.873829
H         0.154540       -1.574262        -0.884090
F         -1.133471       0.745868        1.120058
F         -2.185788       -0.869626        -0.002115
F         -1.134097       0.752633        -1.115034
