13

C         1.740580       1.257937        -0.033838
C         1.531307       -0.226968        -0.096552
H         1.424037       1.737663        -0.965602
H         2.795474       1.462507        0.151129
H         1.142730       1.697173        0.772415
C         0.173609       -0.783194        -0.528161
O         2.437796       -1.031978        0.134786
C         -1.036192       -0.066269        -0.004515
H         0.121215       -1.825385        -0.206112
H         0.119170       -0.766434        -1.623058
F         -0.997035       0.101687        1.377192
F         -2.200771       -0.767471        -0.293434
F         -1.197841       1.205924        -0.553609
