13

C         1.870857       1.224217        0.014696
C         1.506466       -0.226377        0.146817
H         1.308234       1.680786        -0.808083
H         2.937098       1.313424        -0.196272
H         1.617551       1.779935        0.922726
C         0.149972       -0.587832        0.754942
O         2.277902       -1.135614        -0.168413
C         -1.034869       -0.042668        0.008726
H         0.092813       -0.216698        1.783543
H         0.067755       -1.676513        0.768932
F         -1.156331       1.343088        0.128964
F         -2.224312       -0.582763        0.482271
F         -0.975049       -0.315886        -1.352860
