21
s                      x[A]                      y[A]                      z[A]                      q[e]
N -1.7841777250190511 0.9811850298853226 -1.4720628619026295 0.0707249461841811
O -1.6815703368996835 0.3390477595287279 -0.0095302538743024 -0.3496602100029151
N -1.4715530439949001 0.0966951899525915 -0.4530795257742912 0.9824851761690530
N -3.1363337276542596 -0.1654165318844844 0.1013711063730855 0.1071394941056757
O -1.5220206870519473 -0.0853569084580582 -0.4613676728701128 -0.8194842575378962
N -0.6172937973231249 -0.0973965659323346 0.4882540101281132 0.3116552922920345
N -1.0366572205197109 -1.0455484307725154 1.4872762767060568 0.0918298459672651
N -1.4356877047697760 -0.2664518564632080 0.6164718577214128 0.5593901217632046
O -1.0899907912606499 -0.2416131487383898 0.5411711300702162 -0.9963138680841535
N 1.1748684405779899 -0.6289811794927551 -0.0854470446385315 0.9989733053171830
O 1.2079388058042773 -0.7253454514961170 -0.0840221693666052 -0.8354521971080898
N 1.4357791175531935 -1.4449285330744086 -0.2865533101748443 0.2899344186932475
O 1.2352426017971647 -1.1200884082281932 -0.2210740258867342 -0.8678253524624289
N 0.3270939159092395 0.3309921838338113 0.2007614156655153 0.9219570073558310
O 0.5570508152136221 0.2420930134091912 0.3013257205313178 -0.9704818863270434
O 0.4811659389281479 0.3720573053000247 -0.3566797355660763 -0.3320651923316272
N 0.7668768027380879 -0.2412267564839599 -0.0232743466344327 0.9769593393400061
O 1.1596331051241875 0.9363180371571982 0.5540299449600533 -0.1970026432733326
O 0.9395676189936935 1.0295094384612602 -0.4219532843701225 -0.1946060569702309
N 2.3540613955845684 1.2513715953432103 -0.2377447733949744 0.1283355164991325
N 0.4835904740787780 2.2141382866210213 0.3460342988952311 0.1235072004109040
