21
s                      x[A]                      y[A]                      z[A]                      q[e]
N -1.7667252455361979 0.6449073494412496 -1.6457585349484121 0.0690680479201058
O -1.8708542536890580 0.0888442666471445 0.2024783691377906 -0.3117950550350966
N -1.9693720525028344 -0.2631357125280108 0.0891849470579923 0.5776243102962968
N -3.3223879271981289 -0.3556240111187468 0.0220300585236053 0.0604184539076988
O -1.7937647900253371 -0.5110266617086826 -0.0916301198510021 -0.3968494342195521
O -0.7623945231987450 -0.6869086982910293 0.3309170321319858 -0.9828651838991298
N -0.5499370475102083 -0.7262497753340945 0.2791167609843304 0.7759263489545838
N -1.1662188494751535 -0.7457972525276919 1.1498487474512875 0.9970342621901004
O -1.1427252407299964 -0.9955815086683684 1.0239470992592852 -0.3970377457969525
O -1.2401329727283963 -0.5185764207724447 1.2842573105508470 -0.3893757401670396
N 0.9605961249735352 1.7306518339851733 0.1459109072640700 0.1691966627363242
O 0.8452430297465352 1.2966387475285239 0.1153759174430686 -0.6800109224217911
O 0.7027802160032997 -0.4363722371994408 0.3945256251129212 -0.9821368279659007
N 0.5865422917174592 -0.5881321728153559 0.2931480827380074 0.8921713087406896
O 0.7280611532857187 -0.3782943142316301 -0.3036036452625619 -0.3335771210350215
N 0.7047523302828296 0.2273934141829917 0.1415607811133475 0.9988617281482304
N 2.8140246776965769 -0.5355635341534571 -0.5751320544012285 0.0655379221577991
N 1.5191118657455387 -0.6440174576909263 -0.2340087628406413 0.9908754307264420
O 1.4923744168414939 -0.7104250348699960 0.1360597443392442 -0.6595771554465193
O 1.3771183086899927 -0.6829902528005687 -0.5762032131719493 -0.5578053818499882
N 1.0481123980495481 -2.2768876495032675 -0.1580667866182108 0.0943160920587207
