21
s                      x[A]                      y[A]                      z[A]                      q[e]
N       -1.7666799536356013        0.6450521628534907       -1.6460490306861895        0.0690680479201058
O       -1.8705059404678543        0.0886761055638099        0.2036575417991388       -0.3117950550350966
N       -1.9698840820922019       -0.2629871798753639        0.0876606687055371        0.5776243102962968
N       -3.3224104056951078       -0.3556575425144959        0.0218133137189082        0.0604184539076988
O       -1.7931599446957545       -0.5111274459940373       -0.0903793442524645       -0.3968494342195521
O       -0.7609504682793847       -0.6874040371049798        0.3327640033848862       -0.9828651838991298
N       -0.5512819808537418       -0.7253878762607533        0.2773583730621136        0.7759263489545838
N       -1.1673750640373275       -0.7455093028226027        1.1481680403921681        0.9970342621901004
O       -1.1415739035888264       -0.9956184195694087        1.0250559801240082       -0.3970377457969525
O       -1.2392457264327692       -0.5186450491401594        1.2853456265226491       -0.3893757401670396
N        0.9602346505931754        1.7310472967294073        0.1452014395762947        0.1691966627363242
O        0.8459777172153726        1.2955062541854794        0.1169551855890287       -0.6800109224217911
O        0.7038561145396638       -0.4375827311808091        0.3963212667446622       -0.9821368279659007
N        0.5852991935107764       -0.5868274940263737        0.2912084160758085        0.8921713087406896
O        0.7288364914607299       -0.3791689442827613       -0.3022987623468728       -0.3335771210350215
N        0.7035916549465692        0.2286929253104926        0.1396272147704599        0.9988617281482304
N        2.8138984453518141       -0.5353940926357200       -0.5753505320439731        0.0655379221577991
N        1.5180309766870843       -0.6427535025057031       -0.2355820416917798        0.9908754307264420
O        1.4931464380626869       -0.7115263599998519        0.1375623327593327       -0.6595771554465193
O        1.3780182299819099       -0.6840969490191435       -0.5747797102327327       -0.5578053818499882
N        1.0479435092398790       -2.2766178917317337       -0.1584487091521747        0.0943160920587207

        RMSE         1.230309607E+00 kcal/mol

Coordinates in bohr
s                   x[bohr]                   y[bohr]                   z[bohr]                      q[e]
+       -3.3385412637078202        1.2189719244273189       -3.1105818570722263        0.0690680479201058
-       -3.5347439435261694        0.1675735533877879        0.3848569773843523       -0.3117950550350966
+       -3.7225414140531470       -0.4969737444709523        0.1656546558279569        0.5776243102962968
+       -6.2784457431349869       -0.6720953498057712        0.0412211888174285        0.0604184539076988
-       -3.3885811946160813       -0.9658908881334674       -0.1707922080356289       -0.3968494342195521
-       -1.4379879800869217       -1.2990053676624627        0.6288328308083566       -0.9828651838991298
+       -1.0417719617134582       -1.3707844208603157        0.5241313636899548        0.7759263489545838
+       -2.2060191567193428       -1.4088084063157238        2.1697231423447989        0.9970342621901004
-       -2.1572620297526810       -1.8814461384473449        1.9370750656971187       -0.3970377457969525
-       -2.3418350251019686       -0.9800970991995184        2.4289512106828104       -0.3893757401670396
+        1.8145805057957927        3.2712053010327100        0.2743909538214104        0.1691966627363242
-        1.5986661937770643        2.4481520142283104        0.2210132697153564       -0.6800109224217911
-        1.3300952882088402       -0.8269115191615648        0.7489386518419290       -0.9821368279659007
+        1.1060551771867111       -1.1089432465985860        0.5503041518116487        0.8921713087406896
-        1.3773013591003627       -0.7165254599733977       -0.5712618689004526       -0.3335771210350215
+        1.3295955320066413        0.4321669956666136        0.2638571955766492        0.9988617281482304
+        5.3174974065664902       -1.0117482042695087       -1.0872549316995574        0.0655379221577991
+        2.8686627958998465       -1.2146280859145506       -0.4451855388736515        0.9908754307264420
-        2.8216378331413581       -1.3445899514436319        0.2599551340942343       -0.6595771554465193
-        2.6040770505539692       -1.2927558769074674       -1.0861762348098751       -0.5578053818499882
+        1.9803262274145563       -4.3021843076901787       -0.2994246652299334        0.0943160920587207
