30
s                      x[A]                      y[A]                      z[A]                      q[e]
N -2.9202214132684157 -1.0391252908729245 0.5287098593868270 0.2137068255539760
N -2.3594757904259809 -0.7273722188507206 -0.0385263406346254 0.4524136045707061
O -2.6530294940135590 -0.9630998794717407 -0.4278166896542304 -0.5303393512711568
N -2.8217667493576184 -1.4543008881643988 -0.8485739666486477 0.2065219334641430
N -3.8434723252621894 0.1544125409246210 0.2959268685064448 0.0640972179527254
N -2.5166657077200609 -1.3312597528982821 1.1326791940711862 0.2729192555687945
O -2.6503993491393003 -1.0529295073062968 0.7369733191255738 -0.5760168259183410
O -1.7621939607087787 1.4600603110732318 0.0873557791961398 -0.7855321009151053
O -1.2033824692057578 1.4733886348994163 -0.0911970006684228 -0.7445427033607991
N -1.4924252280950587 1.5028131962835118 0.0163420179841839 0.9977538426035523
N -1.8607236272835090 0.0944550677741849 -0.0568076026759988 0.2084365764815679
N -1.1269601818532473 0.2586071486003125 -0.2323535184712070 0.3300899125146088
N -0.3829430089770704 -0.8459773224684763 -1.0471446240300084 0.6266498413516267
O -0.5644302719330490 -0.9883674997208531 -0.5655588160844839 -0.5811225412727979
N -0.1333310097261790 -0.5731061066386052 -1.7419368502807075 0.5003074335780895
O -0.1099910130806444 -0.5188266425262368 -1.6298986148939116 -0.5967490130385100
N -0.2516001450136487 -1.5501463969947873 -0.3621542670727331 0.9708061175491041
O -0.1646125845098710 -1.4948267452139794 -0.0033715503683424 -0.1568654630532827
O -0.2153954555478022 -1.4243997939657325 -0.4881621329508825 -0.7813807259506527
N 0.6862129649636082 -0.0426986088737187 0.4015292125357175 0.1400529194232831
N 0.8633624320997203 0.3521171613592144 -0.1214908125950235 0.1778327620465852
N 1.3130455476343834 0.7407496205880475 -0.2481076457481062 0.7120624373414439
O 1.3321223036144636 0.9016417224128117 -0.3537076020044402 -0.9970019554920370
N 1.7583209622504596 -0.6029594097436164 -0.2441485856087105 0.9931708722557875
N 2.3473689508569415 -1.0871249496089672 -0.4247357358602972 0.8506195801821621
O 2.0801498345431466 -0.9803410352831237 -0.4082010109032164 -0.8089940633040810
O 2.2502543724265198 -0.9426158186215339 -0.3491751459203720 -0.9883399134133223
N 1.0435307902899473 0.0167209617320779 1.8359591235586412 0.2529889584625400
N 1.1392885049016812 0.0144720173478776 1.0009656985836290 0.5419198115726583
O 1.0660708729340518 -0.0112095823476180 1.4229350020386580 -0.9654652454832693
