25
s                      x[A]                      y[A]                      z[A]                      q[e]
N -1.8266330334260483 1.1820167759508824 0.7786003134660020 0.1158659338886357
O -1.7114501592624909 -0.4736995069990340 0.4560133774980927 -0.2341991647481463
N -3.2966467578955547 -0.5894239162730528 0.1234532677404680 0.0569852111266852
N -2.1066376731891223 -0.4700898352183048 -0.0031660154362500 0.3189271149812888
O -1.8939415520844842 -0.1898102646301822 -0.2492293073422354 -0.2877498234141676
N -1.3179615669144522 -0.8586205379386349 -0.4238471263417354 0.5692545008206258
O -0.9150974007579749 -0.4454300370033275 0.2379178990327639 -0.2058946535748549
O -1.0941646625182746 -0.6515368126380472 -0.4465399409111625 -0.9992971180892700
N -0.6784614058545534 -0.3583818697863427 -0.2184282154873082 0.6691943173322236
N -0.9014418894652002 -1.9474918114899988 -0.8711263162995047 0.0628076875181509
N 0.6388290574925588 1.6171079460680757 -0.1123183514174778 0.7576134719858190
O 0.5930375541036058 1.2682204440360172 -0.0344605133817905 -0.9235083265987739
N 0.6579923889506486 0.8463913758044033 -0.0813103964976472 0.9955526175656415
O 0.6466978565874067 1.4173453258610063 -0.1575241656055421 -0.9936641819349231
O 0.4870398081604317 -0.2080791797445329 -0.2103350307214921 -0.9934394819660318
N 0.4978048202244010 0.2129166880211310 -0.0471212304192569 0.8475065253219278
N 0.4304786352171596 -0.4859968793832685 -0.1163505197511912 0.9207393412409772
O 0.6346929982080503 -0.3113127110904347 0.1837404428222109 -0.6738758902636315
N 2.7929927268854380 -0.1654176267477874 0.4083736682373686 0.1207489421105395
N 1.0856790315859741 -0.7454774181556771 0.1484964296781436 0.4308753055723465
O 1.4132907637840446 -0.5066013478166462 -0.0903019472073193 -0.7095764258838037
N 1.5250503613596362 -0.3003856252586689 0.1295037502315452 0.9977500474782615
O 1.4453881000997364 -0.4847062401666890 0.2586049638188705 -0.9963537733476465
O 1.7483871926061476 -1.9797036585116616 -0.1087881944930053 -0.1586318904925156
N 1.7117011462933671 -1.9260256215945888 0.0522675535658440 0.3123697133706422
