25
s                      x[A]                      y[A]                      z[A]                      q[e]
N 0.0832317648802226 -0.0061700974365426 0.2375940656988864 0.1158659338886357
O -0.1701811321194977 0.4595466197958024 0.2896088638818396 -0.2341991647481463
N -0.0761123230139259 -0.0015574429469045 -0.3905165483350836 0.0569852111266852
N -0.5206967090262181 -0.0488553360343814 0.1688472088784566 0.3189271149812888
O -0.2232135522261481 -0.3291766755911492 0.2467096003812916 -0.2877498234141676
N 0.0015509897200006 0.1291528223839311 -0.5534681410850918 0.5692545008206258
O -0.1424599556960358 -0.4937893836130990 0.0457443314827083 -0.2058946535748549
O -0.0400959508966680 0.1453257744016659 -0.2552926887738542 -0.9992971180892700
N -0.1978123322053505 -0.0123503293990055 0.2386462992323857 0.6691943173322236
N 0.0162903656716113 -0.0359870541853510 0.4058560563818256 0.0628076875181509
N 0.0564687557782666 0.0016914080901654 0.2690569494048339 0.7576134719858190
O 0.0299952459838215 -0.0697522221587208 -0.0691887093961110 -0.9235083265987739
N 0.0989372779746633 -0.0128587922544421 -0.5000023176415838 0.9955526175656415
O 0.0612842962521816 0.0510525123584743 0.0778035604243931 -0.9936641819349231
O -0.0438347325322258 0.1106003169473680 -0.1266737928098269 -0.9934394819660318
N -0.0338645804922983 -0.0541069938944497 0.2854321827511260 0.8475065253219278
N -0.0828197661296029 0.0194728028632658 -0.3948680843922485 0.9207393412409772
O 0.1525963590556356 -0.2461797734383498 -0.2301195438668490 -0.6738758902636315
N -0.0678824355717248 0.0216900045314032 0.2160646888872332 0.1207489421105395
N 0.2684543604458361 0.0756221071957527 -0.4858633721490206 0.4308753055723465
O 0.3543323479608435 -0.2051294789504635 -0.1320762801366822 -0.7095764258838037
N 0.4501835105227505 -0.0065023784462970 0.0901076644967648 0.9977500474782615
O 0.3120105337888300 0.1200379112976026 -0.0450779029611428 -0.9963537733476465
O -0.0241011198421653 -0.3622259767641048 -0.1400145784042494 -0.1586318904925156
N -0.0399150425521344 -0.2027013662261521 -0.0781866845188064 0.3123697133706422
