21
s                      x[A]                      y[A]                      z[A]                      q[e]
N 0.0269766561002362 -0.0477086125889099 0.3755432457264178 0.0707249461841811
O 0.1096994046021409 0.2818467481252480 0.3092342983656650 -0.3496602100029151
N 0.3676909603790862 -0.1702318438104445 0.3199491796654306 0.9824851761690530
N 0.0366051740944039 -0.0154628767279611 -0.1887454249322862 0.1071394941056757
O 0.2635702414189871 -0.3379168476962950 0.3164830466144114 -0.8194842575378962
N 0.0896967887734574 0.1223622251150276 0.2882436421580640 0.3116552922920345
N 0.0294120758633594 -0.0118252291386911 0.2465400579345414 0.0918298459672651
N 0.0762985123655103 0.0352155749924339 -0.5519030741389791 0.5593901217632046
O 0.0618358984402466 0.0638478569877984 -0.1944753377200396 -0.9963138680841535
N 0.2179296538762563 0.0823663250316773 -0.4228040128686313 0.9989733053171830
O 0.2056699992700983 0.1006361318965920 -0.3359811179154770 -0.8354521971080898
N 0.0288224353240606 0.0062208668822101 0.4294396558390012 0.2899344186932475
O 0.0409090661314594 -0.0013862824926027 0.0352083987037121 -0.8678253524624289
N -0.0054080087781620 0.0747572528079084 -0.3418098195445834 0.9219570073558310
O 0.1251481690472931 0.2441883904754047 -0.1871558473052924 -0.9704818863270434
O 0.2626604587928851 -0.4161256114843019 -0.2057423622682995 -0.3320651923316272
N 0.0843329303604579 0.0107833071569602 0.4022710251178497 0.9769593393400061
O 0.1954564163549232 -0.5155703867283390 -0.0973833465930125 -0.1970026432733326
O 0.2269234696603682 0.4887393205430020 -0.0750362990245265 -0.1946060569702309
N 0.0233633154561073 -0.0003404476548720 0.1847283654369130 0.1283355164991325
N 0.0365544207738111 0.0058245262237532 -0.1459072830445288 0.1235072004109040
