21
s                      x[A]                      y[A]                      z[A]                      q[e]
N        2.0556794736653154        1.5381513527076780       -0.3229859168749117        0.0707249461841811
O        1.6853457117201467        0.0082418257288878       -0.3144882297444473       -0.3496602100029151
N        1.5576578321458319        0.2865939473469286        0.1065407557429961        0.9824851761690530
N        3.1026128423344139       -0.5516036931976571        0.0184140695894585        0.1071394941056757
O        1.6160307655356356        0.2214087566452942        0.2835008932993230       -0.8194842575378962
N        0.6347924961821028       -0.3487143896237561       -0.0634352171735712        0.3116552922920345
N        0.8278845142403262       -1.8686207423951560        0.2582152218629344        0.0918298459672651
N        1.3929412803393062       -0.7032797889070944        0.0510827117938983        0.5593901217632046
O        1.0618638233098265       -0.5710568903145117        0.0099927608320307       -0.9963138680841535
N       -1.2983743130825318       -0.4663246692034266       -0.1162629895725896        0.9989733053171830
O       -1.3503147936152720       -0.5358002143841198       -0.1385707273750550       -0.8354521971080898
N       -1.7716320037594242       -1.2028801329702765       -0.0789514797135599        0.2899344186932475
O       -1.5015513661367719       -0.9165899545871182       -0.0521816756231982       -0.8678253524624289
N       -0.2316282787246604        0.2813380498218810       -0.0417654273402686        0.9219570073558310
O       -0.4252197348722189        0.2687501562064706       -0.2207446723662782       -0.9704818863270434
O       -0.5397882204452759        0.3642460106391358        0.4373011265362455       -0.3320651923316272
N       -0.8243929061513877       -0.1810098708151253       -0.0159409810251674        0.9769593393400061
O       -0.7818516671865486        1.1221105245617529       -0.4884642060545091       -0.1970026432733326
O       -0.8717514916493948        1.0607893649990079        0.5106780716265189       -0.1946060569702309
N       -2.0903658447821010        1.6063493798134365       -0.0335141020382637        0.1283355164991325
N        0.0006173129026083        2.1874360289398354        0.1202104077023072        0.1235072004109040

        RMSE         6.196128634E-01 kcal/mol

Coordinates in bohr
s                   x[bohr]                   y[bohr]                   z[bohr]                      q[e]
+        3.8846712069527438        2.9066847961199977       -0.6103549252734710        0.0707249461841811
-        3.1848418218658785        0.0155747934013498       -0.5942966238970658       -0.3496602100029151
+        2.9435466999299829        0.5415840696995762        0.2013328495535609        0.9824851761690530
+        5.8630885453403119       -1.0423799099346371        0.0347975483791982        0.1071394941056757
-        3.0538555571763046        0.4184019118377469        0.5357390446583628       -0.8194842575378962
+        1.1995839642799082       -0.6589746923950921       -0.1198751871669886        0.3116552922920345
+        1.5644749954219077       -3.5311814354765283        0.4879560507452765        0.0918298459672651
+        2.6322775286858637       -1.3290061906042028        0.0965323350361623        0.5593901217632046
-        2.0066318085871142       -1.0791411247500382        0.0188835812097401       -0.9963138680841535
+       -2.4535718600554222       -0.8812259103391947       -0.2197052088191536        0.9989733053171830
-       -2.5517251430869750       -1.0125156631475765       -0.2618607237443357       -0.8354521971080898
+       -3.3478992822013853       -2.2731140130681178       -0.1491966738582679        0.2899344186932475
-       -2.8375208453055505       -1.7321039835154817       -0.0986090756953235       -0.8678253524624289
+       -0.4377140097008184        0.5316518628337645       -0.0789252191858162        0.9219570073558310
-       -0.8035488420482833        0.5078641914042398       -0.4171469744261846       -0.9704818863270434
-       -1.0200519023898271        0.6883252023985650        0.8263793635076826       -0.3320651923316272
+       -1.5578768123963809       -0.3420590818450887       -0.0301240883086863        0.9769593393400061
-       -1.4774855217151799        2.1204815739155323       -0.9230635715322216       -0.1970026432733326
-       -1.6473715686766930        2.0046013766464452        0.9650416936510569       -0.1946060569702309
+       -3.9502189486494594        3.0355603896464305       -0.0633324741929664        0.1283355164991325
+        0.0011665523196411        4.1336550116553328        0.2271647479869869        0.1235072004109040
