25
s                      x[A]                      y[A]                      z[A]                      q[e]
N 1.7269964571146990 0.6093664283655141 -1.5396772197093087 0.1158659338886357
O 1.7953159255267803 -0.3931170846314731 -0.1875369311017789 -0.2341991647481463
N 3.3792898331194845 -0.0912874387242886 0.0441142141563068 0.0569852111266852
N 2.1775665627978147 -0.0541790332438191 0.1296873852541907 0.3189271149812888
O 1.9265763888703866 0.3043694958780888 0.1455292440853679 -0.2877498234141676
N 1.4887873927070638 -0.1554365074224022 0.5317966281040676 0.5692545008206258
O 0.7239543556967276 -0.2983016491736049 0.9324731318142327 -0.2058946535748549
O 1.2246386267047187 -0.2209666010487822 0.3909932593833661 -0.9992971180892700
N 0.6686822629543405 -0.2799637225119317 0.4197906160026825 0.6691943173322236
N 1.1155921283987751 -0.6951396786608737 1.8227994644684939 0.0628076875181509
N -1.2991350095845340 -1.4076274734408218 -0.2446581610299403 0.7576134719858190
O -1.1459736922345438 -1.1118129124099492 -0.1011308130881317 -0.9235083265987739
N -0.9959907362870628 -0.7102694007463412 -0.1066768223911284 0.9955526175656415
O -1.2071196388225294 -1.2243176257933941 -0.2569300954538321 -0.9936641819349231
O -0.3536042905807681 0.1591817118646760 -0.0072982111161965 -0.9934394819660318
N -0.6034982039713469 -0.2123312052121658 0.0784588485445100 0.8475065253219278
N -0.2232177295566042 0.3779998801435778 0.1441445650325638 0.9207393412409772
O -0.5816470976639455 0.3278614884856786 0.3212892088803719 -0.6738758902636315
N -2.4781525729088654 1.1901371060466208 -0.2972824951404797 0.1207489421105395
N -0.7418130263589393 0.9151289218900472 0.1854887142385562 0.4308753055723465
O -1.0158329640345967 0.8482213611661253 -0.1932886031476520 -0.7095764258838037
N -1.2826425133336543 0.7195427925759907 -0.0636048909424633 0.9977500474782615
O -1.1915240291122753 0.8558265901125831 0.1121495524479661 -0.9963537733476465
O -0.6357693491338610 2.3060618859247302 -0.1091024029542223 -0.1586318904925156
N -0.6961890098030459 2.2454492114888946 0.0461144076040605 0.3123697133706422
