25
s                      x[A]                      y[A]                      z[A]                      q[e]
N       -1.7715744648241574        1.0836266846556097       -0.9978251754972651        0.1158659338886357
O       -1.8563732180660952       -0.0131492366388682        0.2918098597883862       -0.2341991647481463
N       -3.3095486865091508       -0.5203818790072826       -0.1070665850299558        0.0569852111266852
N       -2.1049034130400326       -0.4678684184095654       -0.0312796636136295        0.3189271149812888
O       -1.7960694795432790       -0.4758010328901337       -0.3402074303108372       -0.2877498234141676
N       -1.3896751791556490       -0.7630115397977576        0.2768010394781191        0.5692545008206258
O       -0.7846469918215118       -0.4131249221853246        0.8121517143519246       -0.2058946535748549
O       -1.1529585728318681       -0.5863314262233129        0.1989355268423918       -0.9992971180892700
N       -0.6920619126025538       -0.3036221315129241        0.3122504186741965        0.6691943173322236
N       -0.9712343645916444       -1.8033920620470434        1.1001168731961759        0.0628076875181509
N        0.7063745194846360        1.6072185062788238        0.1156702186424744        0.7576134719858190
O        0.6731008222797855        1.2607869599402706        0.1915122193380618       -0.9235083265987739
N        0.6949027757248427        0.8357505954875178        0.1118614192267031        0.9955526175656415
O        0.6974433760800969        1.4140512472430686        0.0635941379373784       -0.9936641819349231
O        0.4501013255037874       -0.2090014269354413       -0.0033741467929029       -0.9934394819660318
N        0.5195231206471820        0.2083681939718444        0.1667009262896943        0.8475065253219278
N        0.4028105384234137       -0.4791588156888967        0.0939229386245811        0.9207393412409772
O        0.6952694386210780       -0.3355546353535813        0.3286821681770498       -0.6738758902636315
N        2.7742636522517827       -0.2650022614220583       -0.4372633280694328        0.1207489421105395
N        1.0786858564465467       -0.7768013227982887       -0.0132632665884332        0.4308753055723465
O        1.2923537359562978       -0.5227419099152499       -0.3443707132526268       -0.7095764258838037
N        1.4982690581602527       -0.3418334264165208       -0.1695903834803433        0.9977500474782615
O        1.4673981744912017       -0.5430731070537628       -0.0412455952263593       -0.9963537733476465
O        1.4874597384005577       -1.9888362429882154       -0.6515953636678030       -0.1586318904925156
N        1.5315000614992302       -1.9471096234488858       -0.4846357097512140        0.3123697133706422

        RMSE         6.474854299E-01 kcal/mol

Coordinates in bohr
s                   x[bohr]                   y[bohr]                   z[bohr]                      q[e]
+       -3.3477905493721805        2.0477576562369570       -1.8856163027767243        0.1158659338886357
-       -3.5080369687797219       -0.0248484560062966        0.5514407157082992       -0.2341991647481463
+       -6.2541406163709823       -0.9833792319748964       -0.2023265228946596        0.0569852111266852
+       -3.9776909711870996       -0.8841431735451901       -0.0591099975262084        0.3189271149812888
-       -3.3940794186303784       -0.8991336423723050       -0.6428988691332626       -0.2877498234141676
+       -2.6261054919507179       -1.4418828407816280        0.5230781558556853        0.5692545008206258
-       -1.4827679197070056       -0.7806929585313402        1.5347443124461952       -0.2058946535748549
-       -2.1787759366509531       -1.1080058143111435        0.3759336623557848       -0.9992971180892700
+       -1.3078074766793581       -0.5737626741871651        0.5900677738537740        0.6691943173322236
+       -1.8353669527112637       -3.4079170940935626        2.0789195963357905        0.0628076875181509
+        1.3348543838278364        3.0372028006343998        0.2185850341061030        0.7576134719858190
-        1.2719762089292572        2.3825420568356814        0.3619056442275452       -0.9235083265987739
+        1.3131759299403971        1.5793397346596998        0.2113874463434915        0.9955526175656415
-        1.3179769688060683        2.6721695846514537        0.1201755038862327       -0.9936641819349231
-        0.8505682339077049       -0.3949554567378689       -0.0063762133456783       -0.9934394819660318
+        0.9817564138663589        0.3937588198630587        0.3150190955476549        0.8475065253219278
+        0.7612015980684592       -0.9054789322507404        0.1774886308986431        0.9207393412409772
-        1.3138688223946491       -0.6341063609461375        0.6211192801762945       -0.6738758902636315
+        5.2425985025682449       -0.5007816967146687       -0.8263079347574445        0.1207489421105395
+        2.0384208440888916       -1.4679417539821258       -0.0250639413810742        0.4308753055723465
-        2.4421946181696437       -0.9878390440385704       -0.6507663336760352       -0.7095764258838037
+        2.8313181821705236       -0.6459715564540653       -0.3204793782892164        0.9977500474782615
-        2.7729806667851484       -1.0262594384330515       -0.0779428788593099       -0.9963537733476465
-        2.8108915282222005       -3.7583558076322241       -1.2313367819502419       -0.1586318904925156
+        2.8941156773553658       -3.6795039245617138       -0.9158287620466661        0.3123697133706422
