25
s                      x[A]                      y[A]                      z[A]                      q[e]
N -1.7715857646410134 1.0836842849246453 -0.9977519941707486 0.1158659338886357
O -1.8563689143524833 -0.0132942051435667 0.2918318498291417 -0.2341991647481463
N -3.3095383638245894 -0.5204104435044932 -0.1070933430003391 0.0569852111266852
N -2.1049666558882905 -0.4678681472303782 -0.0313681998530445 0.3189271149812888
O -1.7959922000571198 -0.4758015332523371 -0.3401484730046122 -0.2877498234141676
N -1.3898500453978655 -0.7629134264186750 0.2766279149230256 0.5692545008206258
O -0.7845653770171395 -0.4134196488281064 0.8122373066676171 -0.2058946535748549
O -1.1528197561854689 -0.5865486516592108 0.1990686656835169 -0.9992971180892700
N -0.6922311872676279 -0.3033329988670052 0.3122325307953050 0.6691943173322236
N -0.9713088799741004 -1.8033306092816073 1.0999807627991234 0.0628076875181509
N 0.7062357205485041 1.6074664144766935 0.1159550936001503 0.7576134719858190
O 0.6733249811337160 1.2606092124283297 0.1912409443450911 -0.9235083265987739
N 0.6947948346729029 0.8360492536877391 0.1121048210780143 0.9955526175656415
O 0.6976728877907369 1.4139317970216356 0.0632951910142291 -0.9936641819349231
O 0.4502863691836586 -0.2093037159051173 -0.0034506667271957 -0.9934394819660318
N 0.5193986110304536 0.2086877254652816 0.1668526999694628 0.8475065253219278
N 0.4026591810594272 -0.4789070385270349 0.0939107604014917 0.9207393412409772
O 0.6954073732297339 -0.3359162581541021 0.3286949652167167 -0.6738758902636315
N 2.7742650375213280 -0.2649175790303980 -0.4372032285379546 0.1207489421105395
N 1.0786009419056892 -0.7765836394351978 -0.0132784691726229 0.4308753055723465
O 1.2924822578244495 -0.5229444696692201 -0.3444538079327837 -0.7095764258838037
N 1.4982266658263916 -0.3416014681772525 -0.1695133768723621 0.9977500474782615
O 1.4675186208263744 -0.5433314549279431 -0.0412763384900794 -0.9963537733476465
O 1.4875391700659064 -1.9889272702409155 -0.6515706296426420 -0.1586318904925156
N 1.5314185366339923 -1.9470233199791800 -0.4847157268262680 0.3123697133706422
