21
s                      x[A]                      y[A]                      z[A]                      q[e]
N -0.0377489520827378 0.1092162413077871 0.1638796800933012 0.0690680479201058
O 0.7608422394374174 -0.5647460426804484 -0.2658395903364716 -0.3117950550350966
N 0.8201629803172787 -0.2434549071212164 -0.0658110331363440 0.5776243102962968
N 1.6515671990665477 -0.4711676963533585 0.9769618504149665 0.0604184539076988
O 0.7987515113237740 0.0977716856590087 -0.1567976278950689 -0.3968494342195521
O 0.1815353028231237 -0.1152822454159431 0.4414109477598231 -0.9828651838991298
N 0.1648181010156994 -0.0754134822524086 0.2272737752500204 0.7759263489545838
N -0.5872717147373778 -0.1199190750453404 0.0310382410716275 0.9970342621901004
O -0.5573311020058973 0.1548973331532080 0.0798265364185549 -0.3970377457969525
O -0.5856753186116499 -0.3943514774668365 0.0315647436119553 -0.3893757401670396
N -0.4280192900347558 0.4722968451316509 -1.0870928516093492 0.1691966627363242
O -0.2410750396774252 0.3888971480342856 -0.6801881729169945 -0.6800109224217911
O -0.3378425291674909 0.5533850121093448 -0.7757898370706058 -0.9821368279659007
N -0.1872671528471491 0.4104607985755849 -0.7463513852370867 0.8921713087406896
O 0.8026911158937224 -0.0698814977709630 0.6182624774734925 -0.3335771210350215
N 0.2746939782162617 0.3359338737993592 0.2538101451201297 0.9988617281482304
N -0.2534197490139792 1.0450057689827961 0.1580041250233286 0.0655379221577991
N 0.9347394816965152 0.6549740945578412 -0.3344744088985952 0.9908754307264420
O 1.0456957282880743 0.3441494454333323 -0.1524675040808852 -0.6595771554465193
O 1.0285222474746543 0.9769307071224017 -0.4987996604682148 -0.5578053818499882
N -0.0952412288985864 -0.3435407219543339 -0.0647435992399940 0.0943160920587207
