21
s                      x[A]                      y[A]                      z[A]                      q[e]
N 1.8297100757719036 0.6989961716665110 -1.7866769867083723 0.0690680479201058
O 1.8468650075180988 -0.4746488373741434 -0.2573234111895455 -0.3117950550350966
N 2.0112862544674934 -0.2023077374924467 -0.0446569098861203 0.5776243102962968
N 3.3645727880027723 -0.2597650170401615 -0.0904381330148340 0.0604184539076988
O 1.8948514914413834 0.1117582636564139 0.0684245413924010 -0.3968494342195521
O 0.9106398547522923 0.1904102579871279 0.3964857259056156 -0.9828651838991298
N 0.7229441409589241 0.3020518450510444 0.3555511137629316 0.7759263489545838
N 1.2233041073389606 -0.6640999582377957 1.0232580229596140 0.9970342621901004
O 1.2521040231548637 -0.4185170612593395 1.1561299720148992 -0.3970377457969525
O 1.2473004154577947 -0.9119545877519035 0.9085822815867310 -0.3893757401670396
N -1.4507228413983466 -1.5134519843484475 -0.1337421622772389 0.1691966627363242
O -1.2111031733383049 -1.1343964367358892 -0.0959151687563859 -0.6800109224217911
O -0.5701807739873972 0.4135350830786181 0.4539110233363183 -0.9821368279659007
N -0.4107499835354403 0.5349044136793684 0.3722345405288728 0.8921713087406896
O -0.5960805211897569 0.4636470576784443 -0.2448125573289522 -0.3335771210350215
N -0.7696524017373120 -0.1757332198098662 0.1110497125657253 0.9988617281482304
N -2.5615945354784957 1.2580515113638064 -0.3971059881480352 0.0655379221577991
N -1.2931365146915133 0.9442081512272681 -0.0895337001467554 0.9908754307264420
O -1.2523345650842399 0.9412895434922790 0.2851691689697932 -0.6595771554465193
O -1.1426045872518340 0.9952486601322337 -0.4264507464853273 -0.5578053818499882
N -0.3857838915840285 2.3491728726461503 0.2190032338988195 0.0943160920587207
