25
s                      x[A]                      y[A]                      z[A]                      q[e]
N        1.8900989375532384        1.2767973198656608        0.3495993851974770        0.1158659338886357
O        1.8311032969437593       -0.2337069197722319       -0.4096052650381411       -0.2341991647481463
N        3.2841101340277636       -0.6617586156141939        0.0722605001551698        0.0569852111266852
N        2.0636341614527538       -0.5592185507356748        0.0567191753855714        0.3189271149812888
O        1.8255076114155697       -0.4041749000923213        0.3763297877388851       -0.2877498234141676
N        1.3083861344227741       -0.9075797684016753       -0.0352932248909091        0.5692545008206258
O        0.7971601576065549       -0.5290754451874393       -0.6052028446989227       -0.2058946535748549
O        1.0648914451796898       -0.7485112326492881        0.0200672661605349       -0.9992971180892700
N        0.6621296047219934       -0.4101642770164011       -0.1385539324569290        0.6691943173322236
N        0.7837971151355230       -2.1699790982387781       -0.3651945101441176        0.0628076875181509
N       -0.5552355490165868        1.5959689288972736       -0.0507627244984133        0.7576134719858190
O       -0.5275206025962732        1.2525590809195157       -0.1330293550296569       -0.9235083265987739
N       -0.6067212390503889        0.8258712809352908       -0.0585830928667867        0.9955526175656415
O       -0.5491756695594602        1.3969423349074903       -0.0146386794138107       -0.9936641819349231
O       -0.4693716562740463       -0.2015203335803147        0.0573535081071280       -0.9934394819660318
N       -0.4864203387790348        0.1995479424816171       -0.1069767423190110        0.8475065253219278
N       -0.4432465460653197       -0.4763179714050080       -0.0387942154681651        0.9207393412409772
O       -0.6916095097246774       -0.3008839207011174       -0.2805740975224746       -0.6738758902636315
N       -2.8348943378826861       -0.0594023923576320        0.1845547257677102        0.1207489421105395
N       -1.1522809253961328       -0.7128056109705470       -0.0396704378684260        0.4308753055723465
O       -1.3816148224581726       -0.4444883972934017        0.2615091612151913       -0.7095764258838037
N       -1.5326267962792255       -0.2545389908207273        0.0778300783290497        0.9977500474782615
O       -1.5115879339369718       -0.4392768431454088       -0.0475544022469340       -0.9963537733476465
O       -1.7503877012644473       -1.8898722827869352        0.4933169056665520       -0.1586318904925156
N       -1.7761836203714625       -1.8349143627295339        0.3265163800243704        0.3123697133706422

        RMSE         4.788928865E-01 kcal/mol

Coordinates in bohr
s                   x[bohr]                   y[bohr]                   z[bohr]                      q[e]
+        3.5717693419944387        2.4127972522646743        0.6606470916516669        0.1158659338886357
-        3.4602837386465852       -0.4416420719938633       -0.7740417704676532       -0.2341991647481463
+        6.2060687191530741       -1.2505425446729468        0.1365525549818737        0.0569852111266852
+        3.8997033882845269       -1.0567699051658688        0.1071837075405388        0.3189271149812888
-        3.4497094255141190       -0.7637798679587671        0.7111602316781702       -0.2877498234141676
+        2.4724914604054939       -1.7150771992856109       -0.0666945291280094        0.5692545008206258
-        1.5064143760031867       -0.9998076911089352       -1.1436676268289510       -0.2058946535748549
-        2.0123531847326026       -1.4144812315360022        0.0379216371300786       -0.9992971180892700
+        1.2512436124822159       -0.7750981500074149       -0.2618289859487780        0.6691943173322236
+        1.4811618855300750       -4.1006661936392383       -0.6901176066931130        0.0628076875181509
+       -1.0492431227595647        3.0159441803561249       -0.0959276466840697        0.7576134719858190
-       -0.9968694644434341        2.3669936188930549       -0.2513890476523473       -0.9235083265987739
+       -1.1465369763036641        1.5606705358487407       -0.1107060011004890        0.9955526175656415
-       -1.0377916102323073        2.6398384260327434       -0.0276630949304797       -0.9936641819349231
-       -0.8869838814104769       -0.3808182391776971        0.1083824226566972       -0.9934394819660318
+       -0.9192012221447896        0.3770909601888679       -0.2021567447766051        0.8475065253219278
+       -0.8376145781185814       -0.9001105145891183       -0.0733104424868317        0.9207393412409772
-       -1.3069525591418027       -0.5685882056790830       -0.5302082022149728       -0.6738758902636315
+       -5.3571738932093833       -0.1122542527529137        0.3487578868599470        0.1207489421105395
+       -2.1774953685877949       -1.3470073854239717       -0.0749662628483161        0.4308753055723465
-       -2.6108736253189875       -0.8399613368282198        0.4941806939949100       -0.7095764258838037
+       -2.8962448975055848       -0.4810089809015988        0.1470775323648345        0.9977500474782615
-       -2.8564872096875171       -0.8301129268005195       -0.0898647963065616       -0.9963537733476465
-       -3.3077533687594984       -3.5713410265610959        0.9322338447680982       -0.1586318904925156
+       -3.3565005910262218       -3.4674856092278019        0.6170265337219693        0.3123697133706422
