25
s                      x[A]                      y[A]                      z[A]                      q[e]
N 0.0590787954743195 0.0081065340909783 0.2413610139292627 0.1158659338886357
O -0.1598824974301016 0.4333072419733557 0.3192990674543715 -0.2341991647481463
N -0.0951893161146518 -0.0138450960194754 -0.3924816360000156 0.0569852111266852
N -0.4939091183777943 -0.0160430013605278 0.1262489520137229 0.3189271149812888
O -0.2436698711520309 -0.3462142618818604 0.2926415436614049 -0.2877498234141676
N 0.0174034160947974 0.0919482134311051 -0.5365555364977684 0.5692545008206258
O -0.1759247908649710 -0.4811337510216935 0.0537571299299606 -0.2058946535748549
O -0.0777971515733960 0.1726738417780910 -0.2509313622139062 -0.9992971180892700
N -0.1846484556060617 -0.0165965090231976 0.2497701556397080 0.6691943173322236
N 0.0249729268936425 0.0046449000688126 0.3895270685333896 0.0628076875181509
N 0.0327109413567436 0.0058624814225342 0.2424515705633359 0.7576134719858190
O 0.0097568687203400 -0.0705706446705393 -0.0847116465177172 -0.9235083265987739
N 0.0805154179159881 -0.0008654814566412 -0.4990697119980750 0.9955526175656415
O 0.0408388847079373 0.0424017427463658 0.0575585968931583 -0.9936641819349231
O -0.0518868313570319 0.1050717322296586 -0.1129126017707381 -0.9934394819660318
N -0.0392561824138701 -0.0402425184522145 0.2929107381609147 0.8475065253219278
N -0.0884712067528178 0.0150697444744375 -0.3846859288251352 0.9207393412409772
O 0.1510144330647307 -0.2351359793188856 -0.2119283902417484 -0.6738758902636315
N -0.0652800144279954 0.0175808832093617 0.2127869123519847 0.1207489421105395
N 0.2772549469687321 0.0749496266820355 -0.4960173367548296 0.4308753055723465
O 0.3569141033576480 -0.1990304938196575 -0.1383369738072439 -0.7095764258838037
N 0.4588821179177300 -0.0096718700225113 0.0766343707609715 0.9977500474782615
O 0.3152538456439840 0.1140369272214142 -0.0528074540402811 -0.9963537733476465
O -0.0202659367594094 -0.3648393661617743 -0.1263138358545828 -0.1586318904925156
N -0.0252865357251707 -0.1910673765493205 -0.0735326316419432 0.3123697133706422
