21
s                      x[A]                      y[A]                      z[A]                      q[e]
N -1.8651030030389986 1.3085978026374758 0.8207300192985992 0.0707249461841811
O -1.5628135496769673 -0.1799004268435825 0.3899452143724316 -0.3496602100029151
N -1.5057796822513381 0.2162240078444426 0.0165679813870928 0.9824851761690530
N -3.0451998902309736 -0.6252965935416238 0.1232746805876200 0.1071394941056757
O -1.5884227882558100 0.1682260386785680 -0.1466035691345034 -0.8194842575378962
N -0.5056547758841422 -0.5971566701042783 -0.3396370828852833 0.3116552922920345
N -0.8558136580337499 -1.8435525046643912 -0.7491564738139869 0.0918298459672651
N -1.2936803394760608 -0.9034290290821997 -0.3386130245506113 0.5593901217632046
O -0.9840671286619408 -0.7310269238336413 -0.3240978328119177 -0.9963138680841535
N 0.7840399987946135 0.8684558788078325 -0.1632618917822026 0.9989733053171830
O 0.7630302507039750 0.9663817984660323 -0.1819930687004350 -0.8354521971080898
N 0.6096386853472250 1.7293040013862688 -0.1102252352555027 0.2899344186932475
O 0.5977721360014973 1.3422934542190743 -0.0999510481572622 -0.8678253524624289
N 0.5222973983170656 -0.4133140836492912 -0.1782320157021655 0.9219570073558310
O 0.6642242699540445 -0.2448778040507571 -0.3278395030661289 -0.9704818863270434
O 0.7268495101077981 -0.2660426549842669 0.3439123411815319 -0.3320651923316272
N 0.6273022787594861 0.3314800932224118 -0.1054918261471302 0.9769593393400061
O 1.5681004295291454 -0.6184474689951620 -0.3614868063686775 -0.1970026432733326
O 1.3635652555185698 -0.5477107274040793 0.6197462930415307 -0.1946060569702309
N 2.7176467014381203 -0.1050978181558070 0.3906900850524223 0.1283355164991325
N 1.5834687547325441 -1.9599117706712796 0.2182738830173493 0.1235072004109040
