21
s                      x[A]                      y[A]                      z[A]                      q[e]
N 1.7502955997996330 0.9917029801298901 -1.3573354546423528 0.0707249461841811
O 1.5688369066785095 -0.2559612850602231 -0.4015753542309514 -0.3496602100029151
N 1.4868447017213979 0.2441568503329159 -0.1948457799572616 0.9824851761690530
N 3.0873439433556844 -0.4764661267520447 -0.0585817376615938 0.1071394941056757
O 1.5755344194659182 0.2645562810888613 -0.0290849881367383 -0.8194842575378962
N 0.5490556292850451 -0.4956373947251864 0.4457126024466332 0.3116552922920345
N 1.0160933297557992 -1.4370378750056720 1.2939057161959604 0.0918298459672651
N 1.3625308762677377 -0.7157981746795277 0.5133539282769015 0.5593901217632046
O 1.0386178200163194 -0.5774079163640418 0.4718571164811443 -0.9963138680841535
N -0.8764234550665915 0.8387068353476922 0.1557108363074177 0.9989733053171830
O -0.8668828042305567 0.9380492989725779 0.1762486830066608 -0.8354521971080898
N -0.7840008884452456 1.7129838901440542 0.1184832141667342 0.2899344186932475
O -0.7331188053718423 1.3291276982618376 0.1090505523816689 -0.8678253524624289
N -0.4906998426068255 -0.4181887188104606 0.1925438762705311 0.9219570073558310
O -0.6609309195496125 -0.2659042232083260 0.3293913471829155 -0.9704818863270434
O -0.6630524427452378 -0.2869893348058455 -0.3452725165875835 -0.3320651923316272
N -0.6621102883004607 0.3132973457515736 0.1114135955247769 0.9769593393400061
O -1.5190953521913975 -0.7284124820192081 0.3117341346973093 -0.1970026432733326
O -1.2651038640860990 -0.6287094684066191 -0.6553255079531575 -0.1946060569702309
N -2.6694005767949065 -0.3225600739093128 -0.5062104113248752 0.1283355164991325
N -1.3682084078720984 -2.0616408827383648 -0.2728921944156007 0.1235072004109040
