25
s                      x[A]                      y[A]                      z[A]                      q[e]
N        1.7560516555296943        0.8215165682813164       -1.4024198065755542        0.1158659338886357
O        1.7666270845726677       -0.3888798935438978       -0.2485824612143726       -0.2341991647481463
N        3.3846875954652855       -0.1881426902362884        0.0208306774728876        0.0569852111266852
N        2.1681227129563467       -0.1577846902453000        0.0670953394288705        0.3189271149812888
O        1.9196208788477049        0.2373935931307615        0.2391470447822446       -0.2877498234141676
N        1.4295390399339596       -0.3695520902817674        0.5020424706017175        0.5692545008206258
O        0.7034000563634537       -0.4238743202934543        0.8286328666575391       -0.2058946535748549
O        1.1766990511864468       -0.3351416689338055        0.3116912338027827       -0.9992971180892700
N        0.6326298352747375       -0.3728542213345548        0.3776897054522706        0.6691943173322236
N        1.0630614950606632       -1.1260201195726944        1.6723619983504801        0.0628076875181509
N       -1.3231610782058043       -1.2680728512778838       -0.2465218776189240        0.7576134719858190
O       -1.1535682348882934       -1.0338876166952675       -0.1255576338101969       -0.9235083265987739
N       -0.9703865016330405       -0.6383550258069947       -0.1118404635439105        0.9955526175656415
O       -1.2194104908590471       -1.1192192365912743       -0.2533086913024557       -0.9936641819349231
O       -0.3339217542769699        0.1216381435217030        0.0125318042620766       -0.9934394819660318
N       -0.5782677375886103       -0.2026101210067730        0.0579454979598515        0.8475065253219278
N       -0.1948022461242186        0.3081028470174957        0.1381881716856556        0.9207393412409772
O       -0.5379879201870860        0.3030000624223383        0.2884335122256563       -0.6738758902636315
N       -2.3824713549127368        1.3497328207029136       -0.2258097856377823        0.1207489421105395
N       -0.6626413743465152        0.8973243812365648        0.1997119752499946        0.4308753055723465
O       -0.9370368880218627        0.8668978369802705       -0.1330212183508659       -0.7095764258838037
N       -1.1763848481526484        0.7554822025529869       -0.0250249845646069        0.9977500474782615
O       -1.0812781269878309        0.8746345317190549        0.1320206016692210       -0.9963537733476465
O       -0.4670210068271760        2.2647396878550348       -0.0103562140999168       -0.1586318904925156
N       -0.5467729022894419        2.2288293114926705        0.1246687285907087        0.3123697133706422

        RMSE         4.515799597E-01 kcal/mol

Coordinates in bohr
s                   x[bohr]                   y[bohr]                   z[bohr]                      q[e]
+        3.3184566911079338        1.5524413215776633       -2.6501893473453388        0.1158659338886357
-        3.3384413556583663       -0.7348764944951628       -0.4697527712874072       -0.2341991647481463
+        6.3961325756637866       -0.3555381570534337        0.0393642754315015        0.0569852111266852
+        4.0971581338721119       -0.2981698513538143        0.1267918158151973        0.3189271149812888
-        3.6275577257328244        0.4486088749555059        0.4519224183510408       -0.2877498234141676
+        2.7014372711251049       -0.6983522397230059        0.9487227727854592        0.5692545008206258
-        1.3292334631585274       -0.8010063769692199        1.5658891765357645       -0.2058946535748549
-        2.2236389388284667       -0.6333259675137505        0.5890110675933026       -0.9992971180892700
+        1.1954971274627537       -0.7045923630431437        0.7137301037096276        0.6691943173322236
+        2.0088950801843932       -2.1278696377476680        3.1603061595057635        0.0628076875181509
+       -2.5004120576744571       -2.3963103960436163       -0.4658588326333981        0.7576134719858190
-       -2.1799280309666806       -1.9537644400563761       -0.2372695408617962       -0.9235083265987739
+       -1.8337647239275821       -1.2063161695847839       -0.2113478458422415        0.9955526175656415
-       -2.3043518622336956       -2.1150178315014969       -0.4786840517597826       -0.9936641819349231
-       -0.6310206629158993        0.2298627776651510        0.0236816779131700       -0.9934394819660318
+       -1.0927676512305886       -0.3828776389486709        0.1095011213473947        0.8475065253219278
+       -0.3681228937988019        0.5822299993368982        0.2611377982636350        0.9207393412409772
-       -1.0166498279582572        0.5725871339748454        0.5450603435103827       -0.6738758902636315
+       -4.5022183625335082        2.5506253736701825       -0.4267186513037491        0.1207489421105395
+       -1.2522107169118903        1.6956973262330166        0.3774009371967020        0.4308753055723465
-       -1.7707430878126154        1.6381994906444983       -0.2513736715578616       -0.7095764258838037
+       -2.2230451811467997        1.4276544554828021       -0.0472903671209166        0.9977500474782615
-       -2.0433195254550109        1.6528197248170715        0.2494827800729882       -0.9963537733476465
-       -0.8825417977389333        4.2797377555008662       -0.0195704083454474       -0.1586318904925156
+       -1.0332510381487587        4.2118769791138826        0.2355897534454736        0.3123697133706422
