21
s                      x[A]                      y[A]                      z[A]                      q[e]
N        1.8960488193539200       -1.4447685301269926       -0.3744053624799639        0.0707249461841811
O        1.6279021910496083       -0.0447962589531035        0.3206332310180374       -0.3496602100029151
N        1.4836788530570291       -0.1235231331437779       -0.2014584237329884        0.9824851761690530
N        3.0541765779443444        0.5661857397051318        0.2020956758642518        0.1071394941056757
O        1.5407998699060936        0.0202748197127157       -0.3101689618704973       -0.8194842575378962
N        0.5355852586864157        0.5649837295187411       -0.0837516084309811        0.3116552922920345
N        0.8939910078126849        1.9004168490221951        0.0997932077501845        0.0918298459672651
N        1.3267532308337540        0.8463385050372370        0.0146395780896558        0.5593901217632046
O        1.0130299300764203        0.6830570824713921       -0.0120134630646216       -0.9963138680841535
N       -0.7895744577161967       -0.8570998389121027       -0.1500729407403398        0.9989733053171830
O       -0.7686006255246206       -0.9540262064927801       -0.1734637482358815       -0.8354521971080898
N       -0.6428115117676809       -1.7258750592927625       -0.1416722419101513        0.2899344186932475
O       -0.6226202562893431       -1.3397240515184188       -0.1008165550256286       -0.8678253524624289
N       -0.5025196850226628        0.4079304382605194       -0.0403845328191379        0.9219570073558310
O       -0.6327023050196074        0.2517281251201511       -0.2122849117406023       -0.9704818863270434
O       -0.7640552314390949        0.2419593254125709        0.4497357761104632       -0.3320651923316272
N       -0.6347561858424023       -0.3357313176953906       -0.0176639127846411        0.9769593393400061
O       -1.4782331236532578        0.6524352858182219       -0.4557386365959950       -0.1970026432733326
O       -1.4757568701680390        0.5563749331115668        0.5444728391445967       -0.1946060569702309
N       -2.7680497130322737        0.1594565811493019       -0.0016755828436493        0.1283355164991325
N       -1.5662489892680513        1.9826596708040782        0.1429875925176688        0.1235072004109040

        RMSE         8.462962549E+00 kcal/mol

Coordinates in bohr
s                   x[bohr]                   y[bohr]                   z[bohr]                      q[e]
+        3.5830129890765727       -2.7302168366202832       -0.7075235949898959        0.0707249461841811
-        3.0762893001164855       -0.0846526608664538        0.6059089933447406       -0.3496602100029151
+        2.8037466904111739       -0.2334248918002028       -0.3807012465217815        0.9824851761690530
+        5.7715572711028145        1.0699359841824529        0.3819054785227337        0.1071394941056757
-        2.9116897682635678        0.0383138565000662       -0.5861343905528117       -0.8194842575378962
+        1.0121094557498089        1.0676645141301642       -0.1582676025011391        0.3116552922920345
+        1.6893981633880040        3.5912673688574870        0.1885818318287643        0.0918298459672651
+        2.5072002423421256        1.5993479839497884        0.0276647931817026        0.5593901217632046
-        1.9143491247361282        1.2907908139251920       -0.0227021550104381       -0.9963138680841535
+       -1.4920794807404942       -1.6196839577178965       -0.2835967568413046        0.9989733053171830
-       -1.4524446820971044       -1.8028482467808313       -0.3277989768611845       -0.8354521971080898
+       -1.2147377075324288       -3.2614311888216116       -0.2677217367897943        0.2899344186932475
-       -1.1765817645492205       -2.5317115410585651       -0.1905156779105871       -0.8678253524624289
+       -0.9496245773441647        0.7708768065503651       -0.0763157067327340        0.9219570073558310
-       -1.1956340754329398        0.4756972145520665       -0.4011603437567254       -0.9704818863270434
-       -1.4438551321431849        0.4572368585302874        0.8498774456689949       -0.3320651923316272
+       -1.1995153476823521       -0.6344402421833617       -0.0333799574669448        0.9769593393400061
-       -2.7934557532846935        1.2329240047812391       -0.8612212079559828       -0.1970026432733326
-       -2.7887763123804197        1.0513962466507796        1.0289045487337420       -0.1946060569702309
+       -5.2308558592831318        0.3013292672740220       -0.0031663926750130        0.1283355164991325
+       -2.9597816339917542        3.7466837778100839        0.2702073891969570        0.1235072004109040
