21
s                      x[A]                      y[A]                      z[A]                      q[e]
N -1.8742958639397194 1.3092591314575910 0.8222688409621067 0.0707249461841811
O -1.5687274518705352 -0.1802402355722142 0.3907768298222632 -0.3496602100029151
N -1.5123665674101550 0.2155438690354710 0.0169367822819325 0.9824851761690530
N -3.0516010031293388 -0.6296219804875558 0.1211434635455190 0.1071394941056757
O -1.5949307449828980 0.1672162354466322 -0.1461774087842517 -0.8194842575378962
N -0.5066560806300879 -0.5992639904389904 -0.3400726703150958 0.3116552922920345
N -0.8567699841155394 -1.8482608893175834 -0.7485008385310519 0.0918298459672651
N -1.2947144239780550 -0.9054518818940277 -0.3390152916181496 0.5593901217632046
O -0.9850810828733128 -0.7330856074205164 -0.3245039685768040 -0.9963138680841535
N 0.7834181991278166 0.8716716191090714 -0.1635944580252510 0.9989733053171830
O 0.7622750348133631 0.9695695994862723 -0.1823215583164255 -0.8354521971080898
N 0.6078703142293964 1.7322845273068450 -0.1105232081286346 0.2899344186932475
O 0.5965234271453219 1.3452582717609207 -0.1002536801862528 -0.8678253524624289
N 0.5232651299064842 -0.4149921308923094 -0.1785375504354518 0.9219570073558310
O 0.6649481916302236 -0.2463635566876581 -0.3281595121767249 -0.9704818863270434
O 0.7276828010591262 -0.2674549641210182 0.3435844369450897 -0.3320651923316272
N 0.6272810217711267 0.3299409017977701 -0.1057983103927349 0.9769593393400061
O 1.5740072714245263 -0.6183597691228463 -0.3609682332870267 -0.1970026432733326
O 1.3715224777884218 -0.5472725455949445 0.6206647095148446 -0.1946060569702309
N 2.7247626081764844 -0.0983177098130434 0.3881219558079164 0.1283355164991325
N 1.5974367114444499 -1.9611856865766391 0.2206856919366172 0.1235072004109040
