25
s                      x[A]                      y[A]                      z[A]                      q[e]
N 0.0626240908757981 -0.0030953852176956 0.2409428226429086 0.1158659338886357
O -0.1587329021322791 0.4228494314047135 0.3326570657854220 -0.2341991647481463
N -0.0990184328651648 -0.0212531879470887 -0.3951404302653166 0.0569852111266852
N -0.4867840137301593 0.0119604164250704 0.1184383738911761 0.3189271149812888
O -0.2481537175084434 -0.3795599353260192 0.3050262328660485 -0.2877498234141676
N -0.0160587341942376 0.0726823799964278 -0.5280903667780829 0.5692545008206258
O -0.1758633048170647 -0.4461655003516012 0.0651384470003147 -0.2058946535748549
O -0.0578327802971711 0.1859513401338455 -0.2341404165344730 -0.9992971180892700
N -0.1841422799473117 -0.0231452800606228 0.2560571434003981 0.6691943173322236
N 0.0327018933762411 0.0219465784825513 0.4275952705921141 0.0628076875181509
N 0.0212577470780720 0.0030669886608246 0.1996588495289522 0.7576134719858190
O -0.0100616360209884 -0.0576753021036547 -0.1087502904252261 -0.9235083265987739
N 0.0572968918149884 0.0017573372394654 -0.5346226522607146 0.9955526175656415
O 0.0214993214072576 0.0449326001947584 0.0228031557226848 -0.9936641819349231
O -0.0650525154268650 0.0968967323294263 -0.1115120024503981 -0.9934394819660318
N -0.0548691750001103 -0.0338350498754582 0.2781999286105802 0.8475065253219278
N -0.1008709024685216 0.0182364888215207 -0.3664039168373935 0.9207393412409772
O 0.1456247701996703 -0.2173861549991536 -0.2101835654073536 -0.6738758902636315
N -0.0672942408709281 0.0209444975614815 0.2145491292041848 0.1207489421105395
N 0.2897505586006982 0.0673237625567036 -0.4944053168627460 0.4308753055723465
O 0.3673594065986099 -0.1867279517815408 -0.1473451201432798 -0.7095764258838037
N 0.4688268151054210 -0.0093778951045218 0.0544651207112139 0.9977500474782615
O 0.3276554169784077 0.1058578680353524 -0.0688283194621190 -0.9963537733476465
O -0.0077785653162696 -0.3485212909482689 -0.1082510052786866 -0.1586318904925156
N -0.0384171436867649 -0.1958007481119454 -0.0636107218721685 0.3123697133706422
