10
s                      x[A]                      y[A]                      z[A]                      q[e]
C -0.4100177661244621 -1.1343613956420258 -1.0436742991355190
C -0.3993246115466194 -0.2467518438908727 -0.0531981951865155
C 0.7235851235973376 0.4076492462534811 0.6219858572265302
C 1.8165763969736628 0.8496371603466460 -0.0119239083597055
H -1.3399092650246802 -1.5279848366285096 -1.4331155334239154
H 0.5220115531094622 -1.4829000937662489 -1.4699207558165315
F -1.6370136861719500 0.1255483894636087 0.5207875196876804
H 0.6086410692486185 0.5433479028958079 1.6941116835110248
H 1.9242750181375701 0.7702185656681815 -1.0898600369874059
H 2.6331928581845534 1.3103462446977863 0.5325618179199273
