25
s                      x[A]                      y[A]                      z[A]                      q[e]
N 1.8806094273238743 0.7075503719783006 -1.3308850526438030 0.1158659338886357
O 1.8220964601078151 0.4438831380911858 0.3332108225655239 -0.2341991647481463
N 2.9732277354455672 1.4717404917684307 0.6633998948005306 0.0569852111266852
N 1.8767977911285647 0.9701802533379593 0.5110003034382232 0.3189271149812888
O 1.5218597357376420 1.1751987531219605 0.2564756856566157 -0.2877498234141676
N 1.1530123666205858 0.5665161250747334 0.9537930418633426 0.5692545008206258
O 0.5578555543611680 0.8297729518282996 0.3762812808137805 -0.2058946535748549
O 0.9099051903334345 0.4175680075333003 0.8637000941114237 -0.9992971180892700
N 0.4142763254299267 0.4015367452564017 0.6274524366993226 0.6691943173322236
N 0.5516098953879772 0.5897724132580425 2.0864527059640481 0.0628076875181509
N -1.9019106860544190 0.1583472329700533 0.5960328274312771 0.7576134719858190
O -1.5961401825454213 0.1475661515876065 0.4270306428957530 -0.9235083265987739
N -1.2481763358471667 -0.0601995060749828 0.2485242419510096 0.9955526175656415
O -1.7331551149971247 0.0733003471718471 0.5438619380907451 -0.9936641819349231
O -0.2599637717275411 -0.3375052670898167 -0.0076987264439572 -0.9934394819660318
N -0.6355141996554040 -0.1168766341850452 0.0541842579504248 0.8475065253219278
N -0.0122201519940217 -0.3200364874912208 -0.1451449156285795 0.9207393412409772
O -0.2896602137100106 -0.2049982852386140 -0.4041325899783212 -0.6738758902636315
N -1.4917463558732444 -1.6256562656094318 -1.5709588950468669 0.1207489421105395
N -0.1313723610167970 -0.7498929684683654 -0.7465286254150600 0.4308753055723465
O -0.4716380370571492 -1.0387457855947833 -0.6301212448650506 -0.7095764258838037
N -0.7169880423191735 -0.9166345038696421 -0.7808762814275214 0.9977500474782615
O -0.5356850700319332 -0.8536045718579833 -0.9067103307702191 -0.9963537733476465
O 0.6433577498158184 -1.8130132498074039 -1.2952250271550569 -0.1586318904925156
N 0.5751102439221303 -1.6791970679510508 -1.3913485859388628 0.3123697133706422
