25
s                      x[A]                      y[A]                      z[A]                      q[e]
N -1.8771737856478858 1.2268868258995311 -0.8884755907286465 0.1158659338886357
O -1.8736359826543056 0.0561222937249828 0.3289042195880260 -0.2341991647481463
N -3.3585350267577780 -0.4076111241057404 0.0530645303588388 0.0569852111266852
N -2.1459236131748245 -0.3507881450833001 0.0585457504744294 0.3189271149812888
O -1.8720518063204197 -0.3761449335800967 -0.3366463577687810 -0.2877498234141676
N -1.3666477329236573 -0.6963379620381109 0.4524570152836655 0.5692545008206258
O -0.8656322625541538 -0.5749223083915284 -0.2428354495745750 -0.2058946535748549
O -1.0767814363940518 -0.6228101685651196 0.4571718896973257 -0.9992971180892700
N -0.5930570105800899 -0.5815279386546184 0.1899222940367317 0.6691943173322236
N -0.9267351860471617 -1.7755272027398115 0.9920829702564964 0.0628076875181509
N 1.6318914062099734 -1.1375258127740147 -0.2171959960338302 0.7576134719858190
O 1.3726750717441223 -0.9041562434245457 -0.2384982274968267 -0.9235083265987739
N 1.1483049137851848 -0.5462977889059527 -0.1096020322684929 0.9955526175656415
O 1.5164443307306559 -0.9970912194450627 -0.1441895337839846 -0.9936641819349231
O 0.3687275495101019 0.1109493508959824 0.1829528998145748 -0.9934394819660318
N 0.6249130791352163 -0.1749681413741121 -0.0373261106417583 0.8475065253219278
N 0.1482405931631926 0.2846364494914846 0.1440954645676229 0.9207393412409772
O 0.3824796309417250 0.3381790169978693 -0.1714159387329267 -0.6738758902636315
N 2.1409692478795992 1.6548043978538709 -0.1360338627556222 0.1207489421105395
N 0.4784999867079440 0.9519962607243044 0.0614021125048563 0.4308753055723465
O 0.8895771749685433 0.9142979782315350 0.2632258985893641 -0.7095764258838037
N 1.0850868780949714 0.8904135911162614 0.0197744536724027 0.9977500474782615
O 0.9037566767255290 1.0086281444484766 -0.0634977886130898 -0.9963537733476465
O 0.2236170498596148 2.1991382024861204 0.7015352514196995 -0.1586318904925156
N 0.2451134235787448 2.1810570046410955 0.5255054986393680 0.3123697133706422
