25
s                      x[A]                      y[A]                      z[A]                      q[e]
N 0.0649609052207901 -0.0036064976523120 0.2444425476796593 0.1158659338886357
O -0.1733346448874609 0.4393102969972758 0.3077441813741076 -0.2341991647481463
N -0.0841030268811585 -0.0065201527047627 -0.3911509509775472 0.0569852111266852
N -0.5106725309677250 -0.0315153231351946 0.1388652360782652 0.3189271149812888
O -0.2396784697108251 -0.3403773954157130 0.2748037807974951 -0.2877498234141676
N 0.0387571595999363 0.1139598478338837 -0.5529658787449349 0.5692545008206258
O -0.1599882791353618 -0.4965772492146267 0.0432199903782095 -0.2058946535748549
O -0.0722276723697293 0.1677875257128403 -0.2738149000789613 -0.9992971180892700
N -0.1848796143743672 -0.0185727052758822 0.2431404954528014 0.6691943173322236
N 0.0173373150055897 -0.0201687876333749 0.3800328925101009 0.0628076875181509
N 0.0586483079904417 0.0052090752832972 0.2962987785840202 0.7576134719858190
O 0.0363131418455070 -0.0758145941641202 -0.0571473738180119 -0.9235083265987739
N 0.1073539085310590 -0.0094468562089183 -0.4753152186119298 0.9955526175656415
O 0.0696444261108776 0.0510937048820608 0.0962216996739947 -0.9936641819349231
O -0.0423823945098869 0.1161033528807515 -0.1242419450644029 -0.9934394819660318
N -0.0268429038123791 -0.0524478955805301 0.2969818915924156 0.8475065253219278
N -0.0789084074843629 0.0195958002872091 -0.4036947451133384 0.9207393412409772
O 0.1563725110714938 -0.2564208811902807 -0.2265497494684119 -0.6738758902636315
N -0.0644007498385430 0.0227186293197068 0.2202991399797871 0.1207489421105395
N 0.2620278692529686 0.0758096957170163 -0.4895318311861275 0.4308753055723465
O 0.3489990073680585 -0.2118267215754530 -0.1257536645829284 -0.7095764258838037
N 0.4485608697700143 -0.0079924030287884 0.1034159844755931 0.9977500474782615
O 0.3048300205818941 0.1260288136097595 -0.0346968975314157 -0.9963537733476465
O -0.0341217501259723 -0.3709545148699476 -0.1405330397323635 -0.1586318904925156
N -0.0305231112531458 -0.2012411874983968 -0.0944323402418279 0.3123697133706422
