25
s                      x[A]                      y[A]                      z[A]                      q[e]
N       -2.2667708833734173       -0.5789750483141098       -0.4801677735936831        0.1158659338886357
O       -1.3714211449126392        0.8630080561565634       -0.5508235279184822       -0.2341991647481463
N       -2.6728348652123546        1.7911421665767648       -0.3904428178939301        0.0569852111266852
N       -1.6849233429339681        1.1567244162313037       -0.1263080705859967        0.3189271149812888
O       -1.6095605673875428        0.8797320193982643        0.1949799025503861       -0.2877498234141676
N       -0.8208038110096377        1.1907992960326237        0.1911915136303411        0.5692545008206258
O       -0.4197196155312083        0.6282256537385332       -0.4055009618369220       -0.2058946535748549
O       -0.7441820635047096        0.9019719901646450        0.2480721877138011       -0.9992971180892700
N       -0.4529454457014328        0.4461642666335102        0.0805375460915945        0.6691943173322236
N        0.1426218690530465        2.0439844494921000        0.4026799191150015        0.0628076875181509
N       -0.2603760847700440       -1.9324628007314497        0.1043550638681082        0.7576134719858190
O       -0.1064476119442622       -1.6046317057220576        0.0755406649647512       -0.9235083265987739
N        0.1150721964443244       -1.2658948861630426        0.2195760836539619        0.9955526175656415
O       -0.1802589236457239       -1.7596194928328464        0.1821701340791235       -0.9936641819349231
O        0.4104212750112931       -0.2815197178771502        0.4652985426620914       -0.9934394819660318
N        0.2820724835792098       -0.6543630201562314        0.2406500496298245        0.8475065253219278
N        0.5367114917304716       -0.0170647913096282        0.4095172691484349        0.9207393412409772
O        0.7327002239687332       -0.2788458065281021        0.1734284229705723       -0.6738758902636315
N        2.8325136745871391        0.1340719141628691       -0.5119619938864045        0.1207489421105395
N        1.2658250070671631       -0.1395332213820346        0.5280660758761742        0.4308753055723465
O        1.4872611411466596       -0.1570034399523228        0.1103734479862460       -0.7095764258838037
N        1.6009490808458280        0.0754342882181209       -0.0827152863050070        0.9977500474782615
O        1.6005349193453275        0.1763480218090397        0.1352543977130613       -0.9963537733476465
O        2.1350954005467111       -0.5593185281839707        1.4143317926324974       -0.1586318904925156
N        2.1290949873914462       -0.3851211161860303        1.3986746001545176        0.3123697133706422

        RMSE         4.058446851E+00 kcal/mol

Coordinates in bohr
s                   x[bohr]                   y[bohr]                   z[bohr]                      q[e]
+       -4.2835761587378665       -1.0941042747873817       -0.9073855863629025        0.1158659338886357
-       -2.5916103665467003        1.6308488701996344       -1.0409056112244053       -0.2341991647481463
+       -5.0509258738263396        3.3847681465892498       -0.7378299934715329        0.0569852111266852
+       -3.1840436605360591        2.1858923493072497       -0.2386876608425294        0.3189271149812888
-       -3.0416286546989650        1.6624525804586729        0.3684586157886861       -0.2877498234141676
+       -1.5510944055402622        2.2502845398896394        0.3612995982730820        0.5692545008206258
-       -0.7931551228364395        1.1871744305525296       -0.7662857614815093       -0.2058946535748549
-       -1.4063002875019663        1.7044800342453210        0.4687884941222484       -0.9992971180892700
+       -0.8559428421491377        0.8431282709030766        0.1521939049295501        0.6691943173322236
+        0.2695162720111673        3.8625708142347581        0.7609547633488635        0.0628076875181509
+       -0.4920394898343742       -3.6518254410176256        0.1972024905153843        0.7576134719858190
-       -0.2011568332836690       -3.0323144560409299        0.1427511681183472       -0.9235083265987739
+        0.2174549359346552       -2.3921946384657651        0.4149386618066054        0.9955526175656415
-       -0.3406399973602323       -3.3251989264710833        0.3442516616474751       -0.9936641819349231
-        0.7755838058325527       -0.5319951657039679        0.8792868122060080       -0.9934394819660318
+        0.5330397414924070       -1.2365668947227177        0.4547626858782023        0.8475065253219278
+        1.0142377277565153       -0.0322477819632901        0.7738754823359426        0.9207393412409772
-        1.3846027553625171       -0.5269422055705135        0.3277322217844409       -0.6738758902636315
+        5.3526750915838699        0.2533591988837131       -0.9674679550886195        0.1207489421105395
+        2.3920625861126581       -0.2636795738149216        0.9979002595512021        0.4308753055723465
-        2.8105162338030651       -0.2966935022646537        0.2085755882164698       -0.7095764258838037
+        3.0253553036020580        0.1425501452010987       -0.1563092375052959        0.9977500474782615
-        3.0245726517944034        0.3332494639853492        0.2555937689414355       -0.9963537733476465
-        4.0347455587579661       -1.0569588351618699        2.6726997386032338       -0.1586318904925156
+        4.0234064212549212       -0.7277734347222211        2.6431119329262738        0.3123697133706422
