25
s                      x[A]                      y[A]                      z[A]                      q[e]
N       -2.2657299260361699       -0.5786252766224429       -0.4800710101115963        0.1158659338886357
O       -1.3721605714135636        0.8627210549439195       -0.5505653877488392       -0.2341991647481463
N       -2.6727049651043724        1.7911928623653222       -0.3904740346243299        0.0569852111266852
N       -1.6840593596150748        1.1571626710030216       -0.1265263730318236        0.3189271149812888
O       -1.6103739106345871        0.8793126232695857        0.1951233337817762       -0.2877498234141676
N       -0.8195803724764863        1.1910958648520436        0.1907103313158240        0.5692545008206258
O       -0.4203107979515522        0.6282248289921102       -0.4052472780335784       -0.2058946535748549
O       -0.7462949309852219        0.9015302021358498        0.2487682255094104       -0.9992971180892700
N       -0.4511365490730540        0.4460916700372856        0.0799582965069891        0.6691943173322236
N        0.1426261399716942        2.0439634557212982        0.4026008728537762        0.0628076875181509
N       -0.2563166101713650       -1.9349617627316706        0.1041554176144965        0.7576134719858190
O       -0.1105280490017659       -1.6015862701622963        0.0759663800647397       -0.9235083265987739
N        0.1182506270526761       -1.2684239897608061        0.2187231367845081        0.9955526175656415
O       -0.1848808986728801       -1.7561527366088787        0.1823824342958815       -0.9936641819349231
O        0.4084499550809658       -0.2802601398580842        0.4663135109405426       -0.9934394819660318
N        0.2841864934820588       -0.6558161051878417        0.2397197556293177        0.8475065253219278
N        0.5383070227989235       -0.0180753105051641        0.4084818823542285        0.9207393412409772
O        0.7314686759398042       -0.2778379925067860        0.1743297599995013       -0.6738758902636315
N        2.8325920513512450        0.1341151660023615       -0.5122490305511285        0.1207489421105395
N        1.2663108633173843       -0.1401778038454295        0.5274158142075926        0.4308753055723465
O        1.4863018279545794       -0.1572542618887169        0.1118790548959371       -0.7095764258838037
N        1.6021159497833832        0.0757879635421891       -0.0847899538007492        0.9977500474782615
O        1.5993359911703295        0.1759354608629828        0.1371620874617052       -0.9963537733476465
O        2.1351249701251689       -0.5593724235775295        1.4147381094576548       -0.1586318904925156
N        2.1289256004261836       -0.3849119856680971        1.3978297045488897        0.3123697133706422

        RMSE         3.805152403E+00 kcal/mol

Coordinates in bohr
s                   x[bohr]                   y[bohr]                   z[bohr]                      q[e]
+       -4.2816090344621829       -1.0934433020836931       -0.9072027298828126        0.1158659338886357
-       -2.5930076801233533        1.6303065165100630       -1.0404177970018007       -0.2341991647481463
+       -5.0506803981985851        3.3848639477453371       -0.7378889845425207        0.0569852111266852
+       -3.1824109686863866        2.1867205307989717       -0.2391001926776599        0.3189271149812888
-       -3.0431656506818690        1.6616600366373930        0.3687296615338506       -0.2877498234141676
+       -1.5487824417812741        2.2508449737356933        0.3603902954822308        0.5692545008206258
-       -0.7942722957010747        1.1871728720076671       -0.7658063685707253       -0.2058946535748549
-       -1.4102930283795208        1.7036451758653921        0.4701038149289173       -0.9992971180892700
+       -0.8525245229322377        0.8429910832185716        0.1510992818563607        0.6691943173322236
+        0.2695243428777157        3.8625311417576023        0.7608053875639063        0.0628076875181509
+       -0.4843681946296181       -3.6565477947959693        0.1968252137740845        0.7576134719858190
-       -0.2088677417945201       -3.0265594169002505        0.1435556530647974       -0.9235083265987739
+        0.2234612992932122       -2.3969739516084481        0.4133268258237710        0.9955526175656415
-       -0.3493742643202630       -3.3186477066640583        0.3446528509135231       -0.9936641819349231
-        0.7718585510585775       -0.5296149082142865        0.8812048242783082       -0.9934394819660318
+        0.5370346412352973       -1.2393128274694636        0.4530046850010880        0.8475065253219278
+        1.0172528445005484       -0.0341573864873708        0.7719188848609766        0.9207393412409772
-        1.3822754668774939       -0.5250377130848297        0.3294355019158506       -0.6738758902636315
+        5.3528232022026296        0.2534409330147760       -0.9680103757729127        0.1207489421105395
+        2.3929807213619179       -0.2648976581360110        0.9966714430876997        0.4308753055723465
-        2.8087033946014950       -0.2971674870306957        0.2114207729283828       -0.7095764258838037
+        3.0275603663183412        0.1432184947009201       -0.1602297908736380        0.9977500474782615
-        3.0223070058995622        0.3324698367872418        0.2591987800987159       -0.9963537733476465
-        4.0348014371628969       -1.0570606826951199        2.6734675661229468       -0.1586318904925156
+        4.0230863262813523       -0.7273782353188522        2.6415153116270340        0.3123697133706422
