24
s                      x[A]                      y[A]                      z[A]                      q[e]
N 0.7759963184549611 1.0825286634296947 0.1849453680251331 0.6959175615854226
O 0.8543349358123404 1.1923259938463473 0.4767184554170981 -0.4294665048044459
N 0.2700457092617989 1.6626207088936988 -0.8455096435605362 0.7289443612696791
O 0.3072145301781423 1.5798588904662434 -0.6728259864072945 -0.8899528116456963
N 1.6719446203145689 1.5211768424270862 -0.0243708844553396 0.4821174903544280
O 1.4500608232419805 1.4118232273668070 -0.0874604912951751 -0.6035297564939646
N -0.0145356848820109 1.9706478777814529 1.1108294354804340 0.0604057803354635
N 1.8193475125882872 -1.0419528580095889 0.0879990424849044 0.6991174418445399
O 1.4655053901926569 -1.2897727657075635 0.0540898155403160 -0.4131324281244263
O 1.7820592574805845 -0.8161307561375492 0.1008382132732634 -0.9286014603942530
O 0.0925732799160284 -0.4127995219442479 -0.0319571857337527 -0.1057946580878595
N 0.6999401846514188 0.0519965877714811 0.1527801121221036 0.9961038253671308
O 0.6043588582059040 0.2063548457712170 0.4176238704674691 -0.3737552305035935
N -0.3569403293939499 -0.5535626561008804 -0.1547725388496629 0.9714181100989372
O -0.7012772844119071 -0.7712026482462953 0.0185327837548864 -0.9973398242463560
N -0.7599083504464463 -0.9754214978993638 -0.1767246635970832 0.7637225416907655
O -0.6561390872562163 -0.7903867026949154 -0.4511228959044826 -0.9974375214017446
O -2.1146046262511287 -0.1960818587601413 -0.0948369772384523 -0.4871145088925188
N -1.3671328926535855 -0.0314874586926596 -0.1849336065049459 0.4662300369825688
N -2.3266016957635713 -0.2825367192453799 -0.0583288946616737 0.6223673236702755
N -2.0752993828578123 0.1160888483064537 1.0968310916340840 0.9509229066582735
O -2.0732207334511790 0.0413918350937427 1.0042195065316004 -0.9922381659518612
O -1.8620274086512074 0.5557109558322583 -0.3820410806485078 -0.6086911331096487
N -1.9514151757562572 0.8014749396503403 -0.5669879686349635 0.3897866237988844
