23
s                      x[A]                      y[A]                      z[A]                      q[e]
N 0.5033213152802648 1.7437538199526315 -0.7284234759622552 0.2856065124296451
O 0.6125214684402825 1.5290823815568249 -0.6723163709957516 -0.2980193526493612
N 2.3408348005482247 1.0300240582662792 -0.4615256558042856 0.9235469647741466
O 2.2485874643830353 1.0240644958287530 -0.4448237317819159 -0.9987019282037162
O 1.2342144506940649 0.5823625941740742 -0.2155702524989336 -0.9994297377915048
N 1.6003877910134705 0.3975591895932559 -0.1686592341978642 0.3910255639585828
N 1.5381525607973507 1.0234071916446494 -0.4077895605582363 0.3788084070601841
N 0.7113457947700931 0.7869941348567780 -0.3166021646725981 0.3521750120262308
N 1.3524874744366973 -0.2999774020070638 0.2333602538125274 0.5091785922378865
N 0.7733243072160315 -0.4917695287753072 0.5758960623782511 0.9946620798872232
O 0.9263582773657770 -0.5342570268169543 0.5109863256879547 -0.5088390984708862
O 1.0205987114627610 -0.3789720997135018 0.3128035679788019 -0.9513197152299744
N 1.8114370932894091 -1.1891999560713191 0.5858038741361288 0.0534150746794947
N 1.4563798164698831 -1.4546640578318084 0.6665406368099560 0.0449830180293293
O 0.9370197801835971 -0.2225855607730099 0.7101930411644154 -0.1594766348608674
O -0.6917026009788426 -1.2118544491017740 1.1909193026673277 -0.2085098172073890
N -0.7491897307911796 -0.9261177754511785 1.3010028177146287 0.7433887315217406
O -0.7256597892655287 -0.7856970646576872 1.3955517824298072 -0.4563903046399361
N -0.4522869612048390 -0.2705560477926699 -0.0271867123209396 0.2740207269363132
N -1.2039521151365047 -0.2405134589643882 0.0524144213597485 0.2947455612059413
O -1.4425022586882161 0.0428728572885197 -0.5861599169395532 -0.8294346811293033
N -1.6534811390272182 -0.0222600333962729 -0.4815652383547452 0.8271270632704910
O -1.8352245503984319 -0.1563109665635953 -0.2185569685693836 -0.6625620378342709
