8
s                      x[A]                      y[A]                      z[A]                      q[e]
C 1.2868629383018984 0.8371540718224350 -0.3563403636076477
C 0.8065438139023147 -0.2949784942743593 0.1739950224015605
C -0.6313778999887647 -0.4864289570147646 0.4512680217997682
O -1.5423593358117045 -0.1060412575612457 -0.2938560135109414
H -0.8763040520147346 -1.0375084852671086 1.3727397251905684
H 2.3504614779312081 0.9915393370280917 -0.5025080705555700
H 0.6184172454744367 1.6375656535328527 -0.6608774827270162
H 1.4741283531576612 -1.0777434786383062 0.5279587139666071
