21
s                      x[A]                      y[A]                      z[A]                      q[e]
N 1.9845017694251874 1.4222970960693200 0.1317962393211251 0.0707249461841811
O 1.6516896028929635 -0.0609290893231433 -0.2648992718466996 -0.3496602100029151
N 1.4806303979325768 0.1058577989930185 0.2223926904910252 0.9824851761690530
N 3.0419610598802986 -0.6991158433276803 0.0305829504667948 0.1071394941056757
O 1.5374086131759079 0.0252348865131839 0.3560241734815812 -0.8194842575378962
N 0.4943302482517697 -0.6426519696662210 0.0743306856198847 0.3116552922920345
N 0.7321390915326600 -2.0245123637285545 -0.1453543172685324 0.0918298459672651
N 1.2549409294347442 -0.9910299356676958 -0.0283582747199440 0.5593901217632046
O 0.9384539185075343 -0.8301436378480389 -0.0123098565251565 -0.9963138680841535
N -0.7117732058478193 0.8854832023281440 0.0593071956869940 0.9989733053171830
O -0.6921972779554182 0.9809141813668076 0.0752947366265490 -0.8354521971080898
N -0.5009394072227532 1.7335584484712900 -0.0213357828548660 0.2899344186932475
O -0.5204986157885654 1.3467316121905908 -0.0304464569497023 -0.8678253524624289
N -0.5267674041525808 -0.3997307191619988 0.0496147597185447 0.9219570073558310
O -0.6425227094024789 -0.2373896695940482 0.2131339108791281 -0.9704818863270434
O -0.7951040804413321 -0.2530226416896788 -0.4406068754218747 -0.3320651923316272
N -0.5960264096139722 0.3437831500835646 -0.0133332277652823 0.9769593393400061
O -1.4925666783549345 -0.5430021116430311 0.5517485759456937 -0.1970026432733326
O -1.5490557364190982 -0.5103689323696992 -0.4507498827189218 -0.1946060569702309
N -2.7769381533323823 0.0243033763323771 0.1031941559102117 0.1283355164991325
N -1.7412832228745458 -1.8918341246141823 0.0498561877060775 0.1235072004109040
