21
s                      x[A]                      y[A]                      z[A]                      q[e]
N 0.0260465451653942 -0.0443643117246717 0.3735336085249935 0.0707249461841811
O 0.1143968379315279 0.2968402956434698 0.3039980039914382 -0.3496602100029151
N 0.3620490419197122 -0.1853586672865085 0.3301728064523195 0.9824851761690530
N 0.0388054918800172 -0.0107132244149024 -0.1882172270907132 0.1071394941056757
O 0.2690683722546668 -0.3212894348940478 0.3087575204287980 -0.8194842575378962
N 0.0889825943421510 0.1285776322235956 0.2889532839227691 0.3116552922920345
N 0.0324621132512848 -0.0194975118160098 0.2528619394241651 0.0918298459672651
N 0.0721575872087722 0.0448312890413025 -0.5495837201737606 0.5593901217632046
O 0.0645455885816581 0.0529910377479318 -0.1943634270931773 -0.9963138680841535
N 0.2186831525146772 0.0826691472522606 -0.4296640486976400 0.9989733053171830
O 0.2022048845034066 0.0990422592182123 -0.3337146971296414 -0.8354521971080898
N 0.0299561181535456 0.0064203519214871 0.4240068665052815 0.2899344186932475
O 0.0383629001036688 -0.0028085128666695 0.0367799015853741 -0.8678253524624289
N -0.0026984228687755 0.0786879437488225 -0.3435139243149217 0.9219570073558310
O 0.1215565630806882 0.2391790948690361 -0.1844676771306327 -0.9704818863270434
O 0.2576014605446904 -0.4180809629812506 -0.2045545511218591 -0.3320651923316272
N 0.0859541179184065 0.0133795690427701 0.3977334540490795 0.9769593393400061
O 0.1998603083508820 -0.5155380199347465 -0.0991552079595570 -0.1970026432733326
O 0.2306117887029856 0.4884137793250841 -0.0793000092827667 -0.1946060569702309
N 0.0200801959956456 0.0015150106343530 0.1863253360786259 0.1283355164991325
N 0.0326875931064107 0.0047346970753722 -0.1461349200960122 0.1235072004109040
