25
s                      x[A]                      y[A]                      z[A]                      q[e]
N        2.2661212608381764       -0.5775061132069678       -0.4723492107091825        0.1158659338886357
O        1.5990792747259397        0.8090830860704182        0.2968777897183412       -0.2341991647481463
N        2.6756211391483991        1.7907329058946355       -0.3783083443097374        0.0569852111266852
N        1.6660397531620303        1.1629087568137575       -0.1878719375653752        0.3189271149812888
O        1.4372145648343695        0.9178773713502455       -0.4610037786107314       -0.2877498234141676
N        0.7589115558540348        1.2073782839987255       -0.0286099882867003        0.5692545008206258
O        0.7096590608876890        0.6038442348620741        0.5444264749891380       -0.2058946535748549
O        0.6632388444896182        0.9171377744166755       -0.0772165651502498       -0.9992971180892700
N        0.4597471707315699        0.4480816039432184        0.1178697293538484        0.6691943173322236
N       -0.1533138022881967        2.0466432441404065        0.3627237153559202        0.0628076875181509
N        0.2481594982897799       -1.9360245764669830        0.0997839304441721        0.7576134719858190
O        0.1598155858620603       -1.6028442887682111        0.2153380091072319       -0.9235083265987739
N       -0.1155517515374655       -1.2696157038476370        0.2423319048723548        0.9955526175656415
O        0.1613733157947901       -1.7508530087965957        0.0785423576726098       -0.9936641819349231
O       -0.4745839126010952       -0.2765497734924939        0.2402766498214674       -0.9934394819660318
N       -0.2552651570140521       -0.6573094241733262        0.3443516013158285        0.8475065253219278
N       -0.5506055060001002       -0.0149989532854655        0.3740067739625232        0.9207393412409772
O       -0.5818554284512948       -0.2911593824481848        0.6624407085880800       -0.6738758902636315
N       -2.8316415598452984        0.0890323342439105       -0.5189043580708209        0.1207489421105395
N       -1.2219809815118206       -0.1427530270677739        0.6738148060247587        0.4308753055723465
O       -1.5056593740574171        0.2599549208674196        0.1816075130492638       -0.7095764258838037
N       -1.6040377780641644        0.0924254234473017       -0.0857510053488140        0.9977500474782615
O       -1.5860067787614360       -0.0737172152415729        0.1004011781550622       -0.9963537733476465
O       -2.1710116513748985        0.1713796886420075        1.5331142651170302       -0.1586318904925156
N       -2.1474254637233283        0.0134113474470170        1.4602229144875438        0.3123697133706422

        RMSE         3.430394061E+00 kcal/mol

Coordinates in bohr
s                   x[bohr]                   y[bohr]                   z[bohr]                      q[e]
+        4.2823485500613359       -1.0913283897388131       -0.8926106438165268        0.1158659338886357
-        3.0218218821277638        1.5289454454133140        0.5610177152989247       -0.2341991647481463
+        5.0561911684759648        3.3839947559861070       -0.7148991617208060        0.0569852111266852
+        3.1483588476016000        2.1975790592746418       -0.3550265086576715        0.3189271149812888
-        2.7159419110560115        1.7345368486071155       -0.8711708843754759       -0.2877498234141676
+        1.4341349940092174        2.2816142865828328       -0.0540650423144200        0.5692545008206258
-        1.3410612675273337        1.1411002263259540        1.0288169331778869       -0.2058946535748549
-        1.2533397718504933        1.7331392129594398       -0.1459181604825436       -0.9992971180892700
+        0.8687962396367682        0.8467515133085471        0.2227415069606108        0.6691943173322236
+       -0.2897210975772815        3.8675952079438902        0.6854484812312112        0.0628076875181509
+        0.4689534871987043       -3.6585562216780847        0.1885643002612187        0.7576134719858190
-        0.3020076878588840       -3.0289367275261596        0.4069298616140118       -0.9235083265987739
+       -0.2183611637227604       -2.3992259648524086        0.4579409316692500        0.9955526175656415
-        0.3049513708091713       -3.3086326725593715        0.1484235452489838       -0.9936641819349231
-       -0.8968336183642841       -0.5226033319582104        0.4540570625051089       -0.9934394819660318
+       -0.4823812361285488       -1.2421347913699758        0.6507302173497593        0.8475065253219278
+       -1.0404936095093162       -0.0283439138780656        0.7067703718551807        0.9207393412409772
-       -1.0995474043838698       -0.5502114916845023        1.2518315135856908       -0.6738758902636315
+       -5.3510270335718166        0.1682467280312113       -0.9805871220603538        0.1207489421105395
+       -2.3092093855754867       -0.2697641247381609        1.2733254426652854        0.4308753055723465
-       -2.8452838551967816        0.4912436054044851        0.3431884619886173       -0.7095764258838037
+       -3.0311920954291769        0.1746587373448685       -0.1620459150919278        0.9977500474782615
-       -2.9971184449786992       -0.1393053475379983        0.1897307293863667       -0.9963537733476465
-       -4.1026174362764882        0.3238606749996297        2.8971660801037311       -0.1586318904925156
+       -4.0580460012713653        0.0253437736482201        2.7594213904992837        0.3123697133706422
