25
s                      x[A]                      y[A]                      z[A]                      q[e]
N       -1.6524731200266982        0.1577082230538112       -1.5888419795899191        0.1158659338886357
O       -1.8121585213402447        0.3475189134894401        0.0986586381221697       -0.2341991647481463
N       -3.3895683255891611       -0.1310877615998916        0.0187611144927242        0.0569852111266852
N       -2.1261529554586538       -0.1753209002368782        0.0922188103261849        0.3189271149812888
O       -1.8716483834984539       -0.4623537377244191       -0.0814266228837354       -0.2877498234141676
N       -1.4069685180278813       -0.1982757931990611        0.5616751692811220        0.5692545008206258
O       -0.7724732339483421       -0.0836153996674704        0.8819535314652019       -0.2058946535748549
O       -1.1197647149192445       -0.1897104492051835        0.4259451829410061       -0.9992971180892700
N       -0.6364216471551408       -0.0071557064037339        0.4768706519933550        0.6691943173322236
N       -1.1564653674962966       -0.5108377884488607        2.0401641300952660        0.0628076875181509
N        0.9189204488100301        1.2731799476184860       -0.0280431069749488        0.7576134719858190
O        0.8258360553154569        1.0500828910627140        0.0465770503238928       -0.9235083265987739
N        0.7418072306211808        0.6147424664451403        0.0293370823219950        0.9955526175656415
O        0.8587254338323724        1.1444424437184288       -0.0316446711539182       -0.9936641819349231
O        0.3484490809908934       -0.1848967252641587        0.0552025153232414       -0.9934394819660318
N        0.4954667386033578        0.1484987022307040        0.1379634384097554        0.8475065253219278
N        0.2595766113581057       -0.4027065832013916        0.1453663852405877        0.9207393412409772
O        0.5886452551081969       -0.3401119226118971        0.2527294645203847       -0.6738758902636315
N        2.6379947590762463       -0.7729991173002235       -0.4666074918231173        0.1207489421105395
N        0.8412236757561425       -0.8467260283391156        0.0580491259992037        0.4308753055723465
O        1.0821087411966859       -0.6955794359403493       -0.2237321752521657       -0.7095764258838037
N        1.2471386920237988       -0.5305921312874915       -0.1189790083930375        0.9977500474782615
O        1.1982425826305700       -0.7053148014809646        0.0038414012406811       -0.9963537733476465
O        1.0274169266995821       -2.0969307654403182       -0.3944276450640444       -0.1586318904925156
N        1.0576245916588840       -2.1123126683575397       -0.2249684068651308        0.3123697133706422

        RMSE         4.537391176E-01 kcal/mol

Coordinates in bohr
s                   x[bohr]                   y[bohr]                   z[bohr]                      q[e]
+       -3.1227216265312610        0.2980253493043175       -3.0024761980552035        0.1158659338886357
-       -3.4244833012476876        0.6567155699117138        0.1864378059615538       -0.2341991647481463
+       -6.4053558188901834       -0.2477199678231025        0.0354533681996063        0.0569852111266852
+       -4.0178467866495922       -0.3313084855164143        0.1742682951320317        0.3189271149812888
-       -3.5369028479679403       -0.8737219373809114       -0.1538740165711971       -0.2877498234141676
+       -2.6587851662139705       -0.3746869464541394        1.0614122414114846        0.5692545008206258
-       -1.4597628514090790       -0.1580102052422165        1.6666506298495849       -0.2058946535748549
-       -2.1160486361487334       -0.3585007921353756        0.8049197402165332       -0.9992971180892700
+       -1.2026626134359732       -0.0135223253372419        0.9011549295359511        0.6691943173322236
+       -2.1854028181449401       -0.9653435147029112        3.8553514568629672        0.0628076875181509
+        1.7365079793337468        2.4059614094236821       -0.0529937918895694        0.7576134719858190
-        1.5606039690746549        1.9843690731374972        0.0880178688438242       -0.9235083265987739
+        1.4018125037583655        1.1616948992697640        0.0554390509085809        0.9955526175656415
-        1.6227558869081418        2.1626827849775152       -0.0597997618110810       -0.9936641819349231
-        0.6584733317402620       -0.3494041722432791        0.1043176353973153       -0.9934394819660318
+        0.9362964402341498        0.2806218772019440        0.2607131139209068        0.8475065253219278
+        0.4905287040412256       -0.7610051511695262        0.2747026559525058        0.9207393412409772
-        1.1123783172047477       -0.6427183857393930        0.4775894717771382       -0.6738758902636315
+        4.9850876150472114       -1.4607566269180727       -0.8817603676324948        0.1207489421105395
+        1.5896823574300476       -1.6000802968575720        0.1096969499606884        0.4308753055723465
-        2.0448891588256610       -1.3144546324276980       -0.4227925366795269       -0.7095764258838037
+        2.3567505683866767       -1.0026738124563226       -0.2248377405413891        0.9977500474782615
-        2.2643503130330487       -1.3328518070306805        0.0072591962828811       -0.9963537733476465
-        1.9415366081217906       -3.9626248507288504       -0.7453602254803320       -0.1586318904925156
+        1.9986208217844603       -3.9916924345307803       -0.4251286758556639        0.3123697133706422
