25
s                      x[A]                      y[A]                      z[A]                      q[e]
N        1.8711888463372039        1.2814263634975815        0.4610177999088270        0.1158659338886357
O        1.8155018906459288       -0.1689612411581538       -0.4079896780103411       -0.2341991647481463
N        3.3024280068681779       -0.5867615579755081        0.0340244610117542        0.0569852111266852
N        2.1040534664432533       -0.4995546365710771        0.0384414626589609        0.3189271149812888
O        1.8174426612345418       -0.4207189985774027        0.3314895308274968       -0.2877498234141676
N        1.3433991780133507       -0.8639406795514023       -0.0662186677043605        0.5692545008206258
O        0.8255246500681934       -0.4640053770177672       -0.6147944968903292       -0.2058946535748549
O        1.1216577152889111       -0.6892293757231983        0.0354830212546405       -0.9992971180892700
N        0.6767325759831612       -0.3784566173364536       -0.1418077894828552        0.6691943173322236
N        0.8389928861324913       -2.0896844644915440       -0.4793952330670120        0.0628076875181509
N       -0.6172150148662152        1.6217467260796157       -0.0327430178333521        0.7576134719858190
O       -0.5780225561949349        1.2762676752054785       -0.1400746701299466       -0.9235083265987739
N       -0.6423478139721510        0.8399493018728145       -0.0388582711549607        0.9955526175656415
O       -0.6100677940433638        1.4264814891407285       -0.0151743147369338       -0.9936641819349231
O       -0.4626873696811127       -0.2043467186521163        0.0775315978947218       -0.9934394819660318
N       -0.4989997107717961        0.2053192703883761       -0.1013334147243134        0.8475065253219278
N       -0.4235761497947074       -0.4746775887589246       -0.0351522883597886        0.9207393412409772
O       -0.6951044886749949       -0.3138316983273727       -0.2602201401777226       -0.6738758902636315
N       -2.8320785551802539       -0.1450095709174908        0.1752393717984970        0.1207489421105395
N       -1.1237438614524105       -0.7392815261093229       -0.0459585158167000        0.4308753055723465
O       -1.3705181673549816       -0.4826162028706184        0.2603587460902217       -0.7095764258838037
N       -1.5315179332395639       -0.2906278383744993        0.0809231650427366        0.9977500474782615
O       -1.5153301697678465       -0.4822185899667256       -0.0633257405789140       -0.9963537733476465
O       -1.6809372217171468       -1.9440064293043726        0.4882015772580309       -0.1586318904925156
N       -1.7123826442078960       -1.8904263237758117        0.3328150792322195        0.3123697133706422

        RMSE         9.352838432E-01 kcal/mol

Coordinates in bohr
s                   x[bohr]                   y[bohr]                   z[bohr]                      q[e]
+        3.5360344485887079        2.4215448769517991        0.8711973807887998        0.1158659338886357
-        3.4308013535716926       -0.3192904716063437       -0.7709887534532688       -0.2341991647481463
+        6.2406844820224201       -1.1088186455206557        0.0642969128785332        0.0569852111266852
+        3.9760848048979214       -0.9440214478219550        0.0726438362874499        0.3189271149812888
-        3.4344688784565149       -0.7950436830881729        0.6264244267204787       -0.2877498234141676
+        2.5386565236104004       -1.6326112729940745       -0.1251351463539406        0.5692545008206258
-        1.5600154984432966       -0.8768430833033840       -1.1617932225613565       -0.2058946535748549
-        2.1196258884027936       -1.3024547577371173        0.0670531922750696       -0.9992971180892700
+        1.2788392287837544       -0.7151793571330924       -0.2679778845791753        0.6691943173322236
+        1.5854667759978336       -3.9489313265130219       -0.9059256963466772        0.0628076875181509
+       -1.1663673386175286        3.0646571571483499       -0.0618753362260171        0.7576134719858190
-       -1.0923043255454841        2.4117963689131185       -0.2647027636594474       -0.9235083265987739
+       -1.2138614456938988        1.5872741398091215       -0.0734314901916535        0.9955526175656415
-       -1.1528610487041702        2.6956593375112217       -0.0286752989943036       -0.9936641819349231
-       -0.8743524104057629       -0.3861593328884846        0.1465134860901470       -0.9934394819660318
+       -0.9429727900413631        0.3879971893128541       -0.1914924011863880        0.8475065253219278
+       -0.8004429163878971       -0.8970106406470668       -0.0664281976831195        0.9207393412409772
-       -1.3135571121721428       -0.5930559593260359       -0.4917447972641407       -0.6738758902636315
+       -5.3518528350729850       -0.2740283746042121        0.3311544190964376        0.1207489421105395
+       -2.1235681333094822       -1.3970396139571208       -0.0868490080260848        0.4308753055723465
-       -2.5899039862652926       -0.9120124471338629        0.4920067244781331       -0.7095764258838037
+       -2.8941494500499818       -0.5492070189616265        0.1529226191359949        0.9977500474782615
-       -2.8635590105047455       -0.9112610676415575       -0.1196683063859387       -0.9963537733476465
-       -3.1765109831333902       -3.6736397375144594        0.9225672750342192       -0.1586318904925156
+       -3.2359342195402179       -3.5723880122923504        0.6289293501714424        0.3123697133706422
