25
s                      x[A]                      y[A]                      z[A]                      q[e]
N -1.9319130517064322 1.2937975611993471 0.0033095457573759 0.1158659338886357
O -1.7798833829262057 -0.3269581307148947 0.4421338957566342 -0.2341991647481463
N -3.2838629211338519 -0.6830791998685453 0.0063681803575570 0.0569852111266852
N -2.0857504475772437 -0.5573666250701399 -0.0325670796181838 0.3189271149812888
O -1.8429157506741098 -0.3660344982015920 -0.3401907936272457 -0.2877498234141676
N -1.2867381074803017 -0.9630170034100024 -0.1181876417269068 0.5692545008206258
O -0.8226300863305327 -0.5399761767716065 0.4969575980453083 -0.2058946535748549
O -1.0651360951359974 -0.7594210577687996 -0.1627883730182267 -0.9992971180892700
N -0.6607915985725691 -0.4257542324380914 0.0160120855732124 0.6691943173322236
N -0.7580876814244164 -2.1726553963941173 -0.0214876221249014 0.0628076875181509
N 0.5315222968697360 1.6232749868428868 -0.0047030936897441 0.7576134719858190
O 0.5198791078637015 1.2764694416118396 0.0749378039656255 -0.9235083265987739
N 0.6008030131240391 0.8548259247504779 0.0098490572162281 0.9955526175656415
O 0.5486114313815421 1.4301117203423124 -0.0512867222140716 -0.9936641819349231
O 0.4845159312501761 -0.2040388628035561 -0.1152077374610047 -0.9934394819660318
N 0.4847355672237006 0.2182301618285477 0.0524267139169862 0.8475065253219278
N 0.4531852685901988 -0.4784717685382242 -0.0197684507944303 0.9207393412409772
O 0.6847054233795076 -0.3006562297539899 0.2547632926011181 -0.6738758902636315
N 2.8517123146080574 -0.0231722410082546 0.0234671862675949 0.1207489421105395
N 1.1640517565097017 -0.7037277101773238 0.0765587302101674 0.4308753055723465
O 1.4218101268241181 -0.4393545487332464 -0.2118703111327572 -0.7095764258838037
N 1.5634648060944116 -0.2312078676709272 -0.0065650958702422 0.9977500474782615
O 1.5213077188853015 -0.4279528292900135 0.1239985278546466 -0.9963537733476465
O 1.8313948963691737 -1.8854752765687057 -0.3704897870482304 -0.1586318904925156
N 1.8309436979805176 -1.8335164789640175 -0.2006272366637738 0.3123697133706422
