21
s                      x[A]                      y[A]                      z[A]                      q[e]
N       -1.9703152743547494        1.4191564217476342        0.2204076699667071        0.0707249461841811
O       -1.6099810273353421       -0.1194315539725531        0.3203649904423742       -0.3496602100029151
N       -1.5033860996017958        0.1538845923573680       -0.1417105374089292        0.9824851761690530
N       -3.0376675043402122       -0.6920230452896191        0.0541455596370475        0.1071394941056757
O       -1.5625990681283846        0.0572061696440604       -0.2930569937720455       -0.8194842575378962
N       -0.4799714427760118       -0.6506100338534541       -0.1802127129932861        0.3116552922920345
N       -0.7363986155507768       -2.0088161816909711       -0.1803796578523275        0.0918298459672651
N       -1.2439046920624786       -1.0064643936282724       -0.1126719052722526        0.5593901217632046
O       -0.9457607859294750       -0.8146968124037428       -0.1240263327357059       -0.9963138680841535
N        0.7235847314994563        0.8862111096715176       -0.1074595543674838        0.9989733053171830
O        0.6955918196259023        0.9828302374921143       -0.1236735381008249       -0.8354521971080898
N        0.5066866934273486        1.7358282224933848       -0.0340143510167607        0.2899344186932475
O        0.5173783489805570        1.3487472503895770       -0.0252082696374927       -0.8678253524624289
N        0.5334177809234508       -0.4058455731515704       -0.1077952107945283        0.9219570073558310
O        0.6521628606268732       -0.2294846701694471       -0.2680851212648118       -0.9704818863270434
O        0.7740955975417425       -0.2480904004314519        0.3955462872289042       -0.3320651923316272
N        0.6026207799935187        0.3435617805187854       -0.0397137215354840        0.9769593393400061
O        1.5470404386855301       -0.5449322693881220       -0.4766647378652827       -0.1970026432733326
O        1.4908681086315816       -0.5042351578826224        0.5257549017308508       -0.1946060569702309
N        2.7680375216948110        0.0197387311809444        0.1067751421534658        0.1283355164991325
N        1.7236978383389887       -1.8936319784176356        0.0577051303021236        0.1235072004109040

        RMSE         3.891263473E-01 kcal/mol

Coordinates in bohr
s                   x[bohr]                   y[bohr]                   z[bohr]                      q[e]
+       -3.7233562493367782        2.6818169662877525        0.4165101321873731        0.0707249461841811
-       -3.0424232088470298       -0.2256929277459603        0.6054020921210019       -0.3496602100029151
+       -2.8409879890676581        0.2907997344831464       -0.2677941047943224        0.9824851761690530
+       -5.7403596434059798       -1.3077340281026790        0.1023202786236635        0.1071394941056757
-       -2.9528842826582649        0.1081039933137535       -0.5537974573791664       -0.8194842575378962
+       -0.9070145748875165       -1.2294747784578741       -0.3405526718830461        0.3116552922920345
+       -1.3915917025572782       -3.7961124197838672       -0.3408681519446876        0.0918298459672651
+       -2.3506391941700406       -1.9019420589824176       -0.2129190429980853        0.5593901217632046
-       -1.7872288656044573       -1.5395538507265680       -0.2343758012153889       -0.9963138680841535
+        1.3673769710969106        1.6746962866172395       -0.2030691273182900        0.9989733053171830
-        1.3144780342018170        1.8572799766787702       -0.2337091159769329       -0.8354521971080898
+        0.9574990819915019        3.2802399413527730       -0.0642778077568657        0.2899344186932475
-        0.9777033828147961        2.5487629157005944       -0.0476367257115553       -0.8678253524624289
+        1.0080135163947854       -0.7669369824859287       -0.2037034260376538        0.9219570073558310
-        1.2324091957799148       -0.4336631766112769       -0.5066074575006448       -0.9704818863270434
-        1.4628286742765193       -0.4688229111706087        0.7474741528043064       -0.3320651923316272
+        1.1387882316975264        0.6492376723551571       -0.0750480571247613        0.9769593393400061
-        2.9234827341237857       -1.0297727460677573       -0.9007658082285319       -0.1970026432733326
-        2.8173324144929990       -0.9528663512251443        0.9935327733883019       -0.1946060569702309
+        5.2308328209942241        0.0373007959960197        0.2017757756768777        0.1283355164991325
+        3.2573168375043711       -3.5784458216182005        0.1090468923048711        0.1235072004109040
