21
s                      x[A]                      y[A]                      z[A]                      q[e]
N -1.9703152743547494 1.4191564217476342 0.2204076699667071 0.0707249461841811
O -1.6099810273353421 -0.1194315539725531 0.3203649904423742 -0.3496602100029151
N -1.5033860996017958 0.1538845923573680 -0.1417105374089292 0.9824851761690530
N -3.0376675043402122 -0.6920230452896191 0.0541455596370475 0.1071394941056757
O -1.5625990681283846 0.0572061696440604 -0.2930569937720455 -0.8194842575378962
N -0.4799714427760118 -0.6506100338534541 -0.1802127129932861 0.3116552922920345
N -0.7363986155507768 -2.0088161816909711 -0.1803796578523275 0.0918298459672651
N -1.2439046920624788 -1.0064643936282724 -0.1126719052722526 0.5593901217632046
O -0.9457607859294750 -0.8146968124037428 -0.1240263327357059 -0.9963138680841535
N 0.7235847314994563 0.8862111096715176 -0.1074595543674838 0.9989733053171830
O 0.6955918196259023 0.9828302374921143 -0.1236735381008249 -0.8354521971080898
N 0.5066866934273486 1.7358282224933848 -0.0340143510167607 0.2899344186932475
O 0.5173783489805570 1.3487472503895770 -0.0252082696374927 -0.8678253524624289
N 0.5334177809234508 -0.4058455731515704 -0.1077952107945283 0.9219570073558310
O 0.6521628606268732 -0.2294846701694471 -0.2680851212648118 -0.9704818863270434
O 0.7740955975417425 -0.2480904004314519 0.3955462872289042 -0.3320651923316272
N 0.6026207799935187 0.3435617805187854 -0.0397137215354840 0.9769593393400061
O 1.5470404386855301 -0.5449322693881220 -0.4766647378652827 -0.1970026432733326
O 1.4908681086315816 -0.5042351578826224 0.5257549017308508 -0.1946060569702309
N 2.7680375216948110 0.0197387311809444 0.1067751421534658 0.1283355164991325
N 1.7236978383389887 -1.8936319784176359 0.0577051303021236 0.1235072004109040
