21
s                      x[A]                      y[A]                      z[A]                      q[e]
N -0.2302451895490274 0.1229645489153696 0.0280655124924359 0.0690680479201058
O 0.8365301541772038 -0.6452605105914070 -0.3765093215492230 -0.3117950550350966
N 0.9330797184203176 -0.3373264521222747 -0.1700797571398701 0.5776243102962968
N 1.8533734994376887 -0.6555931914132245 0.7691896479222426 0.0604184539076988
O 0.9207483638037101 0.0085514442752046 -0.2434896851307350 -0.3968494342195521
O 0.2176896701646539 -0.1366445937917145 0.4165676897727642 -0.9828651838991298
N 0.1813218092837615 -0.0856628232048947 0.2072785368628867 0.7759263489545838
N -0.4484516916162906 -0.1502564399644216 0.0786953987708572 0.9970342621901004
O -0.3990331016882149 0.1200839663027143 0.1359200785653950 -0.3970377457969525
O -0.4614813849356210 -0.4241428158568591 0.0671867334764022 -0.3893757401670396
N -0.6981335436434256 0.6294964035434909 -0.9906238986950805 0.1691966627363242
O -0.4689645955106281 0.5256206939211627 -0.6109312467758078 -0.6800109224217911
O -0.3869243963048388 0.6148069877381104 -0.7095803180330580 -0.9821368279659007
N -0.2419844273686118 0.4634606804615544 -0.7022592598358649 0.8921713087406896
O 0.7110548973928152 0.0140400413151313 0.5430786999357609 -0.3335771210350215
N 0.1404212459702317 0.4276709557248771 0.2609806704055224 0.9988617281482304
N -0.2768445434950058 1.3742721361537042 -0.2441450726873993 0.0655379221577991
N 0.9773011164462961 -0.7798504493526750 0.5184071456797016 0.9908754307264420
O 1.0148722036561530 0.5976877657851678 -0.3047899647408153 -0.6595771554465193
O 1.4439519011545281 0.1028650749999474 0.2918305467747707 -0.5578053818499882
N 0.0861518048880167 -0.4177054504850125 -0.1677666801617089 0.0943160920587207
