21
s                      x[A]                      y[A]                      z[A]                      q[e]
N       -1.9417885595598254        1.4645401691130211       -0.2328611819706380        0.0707249461841811
O       -1.6266250366242254       -0.0051557835919403        0.3006023634365555       -0.3496602100029151
N       -1.4922007977739855        0.1726930217093158       -0.2031801767833291        0.9824851761690530
N       -3.0511872165389584       -0.6048400145570362        0.1205154699706373        0.1071394941056757
O       -1.5354913929268712       -0.0119619098655487       -0.3283039356060851       -0.8194842575378962
N       -0.5359685802447602       -0.5681684612870276       -0.0766602205680642        0.3116552922920345
N       -0.7814908326156128       -1.9468767498595729        0.3775682675423360        0.0918298459672651
N       -1.3218249028139282       -0.8552434609129929        0.0393938623645611        0.5593901217632046
O       -0.9918339914829569       -0.7563244934900482        0.0005596206762335       -0.9963138680841535
N        0.7703950303979370        0.9038155736975968       -0.1078521045482849        0.9989733053171830
O        0.7669019646750485        0.9268382129338515       -0.1308682187716560       -0.8354521971080898
N        0.6262306935273377        1.7403422501658210       -0.0610937659101924        0.2899344186932475
O        0.6162839788524024        1.3077042895692121       -0.0408286347333651       -0.8678253524624289
N        0.4870016119566826       -0.3632675832441049       -0.0564609971342116        0.9219570073558310
O        0.6387114271059173       -0.2897492866698417       -0.2319291635385129       -0.9704818863270434
O        0.7817282364886730       -0.2681954452021788        0.4213818878481522       -0.3320651923316272
N        0.6127697989589037        0.3775986217320388       -0.0163219447478479        0.9769593393400061
O        1.4713830396170253       -0.6389398265067141       -0.5116753372511645       -0.1970026432733326
O        1.4993149551072358       -0.5715142271797620        0.4859110852737364       -0.1946060569702309
N        2.7566586849862578       -0.1261030099465721       -0.0269495000848818        0.1283355164991325
N        1.5855098892799979       -1.9665466731448926        0.0437459747442353        0.1235072004109040

        RMSE         8.012459245E+00 kcal/mol

Coordinates in bohr
s                   x[bohr]                   y[bohr]                   z[bohr]                      q[e]
+       -3.6694485711153262        2.7675798193553018       -0.4400438591749040        0.0707249461841811
-       -3.0738758280325955       -0.0097430189508964        0.5680561395604279       -0.3496602100029151
+       -2.8198508319825137        0.3263425148083500       -0.3839548882425972        0.9824851761690530
+       -5.7659081967566213       -1.1429819772307244        0.2277412321253418        0.1071394941056757
-       -2.9016582006295399       -0.0226047335832992       -0.6204045242054436       -0.8194842575378962
+       -1.0128338285130638       -1.0736827849552706       -0.1448668215908304        0.3116552922920345
+       -1.4768036431995142       -3.6790638572560601        0.7135006193186033        0.0918298459672651
+       -2.4978870521282346       -1.6161759117142536        0.0744436108930011        0.5593901217632046
-       -1.8742946058224608       -1.4292461546718032        0.0010575298122249       -0.9963138680841535
+        1.4558356158658592        1.7079639022120037       -0.2038109396505030        0.9989733053171830
-        1.4492346783113754        1.7514703850537447       -0.2473050920049289       -0.8354521971080898
+        1.1834045021221846        3.2887702173764151       -0.1154504855430954        0.2899344186932475
-        1.1646079355384844        2.4712029603722092       -0.0771549377224148       -0.8678253524624289
+        0.9202996692546186       -0.6864762425883113       -0.1066958213539193        0.9219570073558310
-        1.2069896704305052       -0.5475467968527694       -0.4382825995943090       -0.9704818863270434
-        1.4772522715007208       -0.5068159395273505        0.7962963622613938       -0.3320651923316272
+        1.1579670979841814        0.7135579804239017       -0.0308440054082874        0.9769593393400061
-        2.7805109705198432       -1.2074212827452298       -0.9669262525559708       -0.1970026432733326
-        2.8332946409557742       -1.0800053661724365        0.9182388724913462       -0.1946060569702309
+        5.2093299359887526       -0.2383001523949056       -0.0509271743784291        0.1283355164991325
+        2.9961794599441607       -3.7162346251740801        0.0826679113577998        0.1235072004109040
