21
s                      x[A]                      y[A]                      z[A]                      q[e]
N -1.9424361172414319 1.4641434917421594 -0.2327337524543874 0.0707249461841811
O -1.6289804598073900 0.0053823633519459 0.3041169776725489 -0.3496602100029151
N -1.4877524733952125 0.1454990526003049 -0.2048281098387335 0.9824851761690530
N -3.0504451248972821 -0.6081722257661005 0.1195322673646725 0.1071394941056757
O -1.5406021245221344 0.0129967171470362 -0.3286154660398010 -0.8194842575378962
N -0.5320431059555686 -0.5831002821266864 -0.0778015893318308 0.3116552922920345
N -0.7794745520941838 -1.9573872975632143 0.3757598178883530 0.0918298459672651
N -1.3142513307478554 -0.8821163848068359 0.0358428653770387 0.5593901217632046
O -1.0043717708067701 -0.7121527377522052 0.0047702568083415 -0.9963138680841535
N 0.7805733932462318 0.8635364787613256 -0.1103954035853185 0.9989733053171830
O 0.7587639037582163 0.9612669097902463 -0.1292500536807334 -0.8354521971080898
N 0.6274370311407198 1.7289661606981970 -0.0618791515705885 0.2899344186932475
O 0.6105333187059057 1.3415032381424123 -0.0384623274232191 -0.8678253524624289
N 0.5012091524098444 -0.4068639955430445 -0.0603601161181945 0.9219570073558310
O 0.6239045932083350 -0.2443455237444269 -0.2310128776343040 -0.9704818863270434
O 0.7759243356969510 -0.2523946423178115 0.4253825895950001 -0.3320651923316272
N 0.6251678119134335 0.3368217283291924 -0.0201508113923827 0.9769593393400061
O 1.4664919073000668 -0.6283848040562485 -0.5126892996558818 -0.1970026432733326
O 1.4941606922770152 -0.5614274280327723 0.4889529791744381 -0.1946060569702309
N 2.7687079015632050 -0.1428532778011535 -0.0248195800479554 0.1283355164991325
N 1.5887442697724103 -1.9739319190279803 0.0433977307769144 0.1235072004109040
