21
s                      x[A]                      y[A]                      z[A]                      q[e]
N 0.4483377165200633 1.2313519445194048 -0.2097222382886365 0.0707249461841811
O -0.2735273269304799 0.1090782413296641 0.6469339234766618 -0.3496602100029151
N 0.2178009299977596 0.0122574649820140 0.4282436994950610 0.9824851761690530
N 0.2598338055858164 0.4853553985016534 -0.1965214057629520 0.1071394941056757
O 0.2210703280377322 -0.1550107446672566 0.3405857212087592 -0.8194842575378962
N -0.5315999779222378 -0.3969822306342173 0.4667508667335646 0.3116552922920345
N 0.0929491348810308 -1.7070011820929138 -0.4188787294231142 0.0918298459672651
N -0.7414294255410108 -0.4976146081454321 -0.3456653604488099 0.5593901217632046
O -0.6061207372721877 -0.4468107651049185 -0.0216452709420935 -0.9963138680841535
N 0.3224634599604288 0.1998066698187761 -0.3773663332364295 0.9989733053171830
O 0.2281678788343270 0.2335815516959936 -0.3960743407550772 -0.8354521971080898
N 0.2277888087266083 0.2814373151260423 0.3416305579942364 0.2899344186932475
O -0.1512082175817645 0.2225624553134263 -0.5714218242434238 -0.8678253524624289
N -0.1765871774271801 -0.0934127336250594 0.4229723858217522 0.9219570073558310
O 0.0442103191048599 -0.2293315411289176 0.3649781346111272 -0.9704818863270434
O 0.0184810566645650 0.4427639087163473 0.3242901613652232 -0.3320651923316272
N 0.2738074866672240 -0.0543776093984567 -0.1817357247371649 0.9769593393400061
O 0.6408739190793873 -0.2402731802105378 -0.2415142648149371 -0.1970026432733326
O 0.4660177636106322 0.7232540584189568 -0.4641725049951596 -0.1946060569702309
N 1.2168243081453665 -0.4798479522438245 0.4666391891350785 0.1283355164991325
N -0.0245344058693408 0.3900002102049104 0.8963181826822899 0.1235072004109040
