21
s                      x[A]                      y[A]                      z[A]                      q[e]
N -2.0433543096668112 1.5812687675999817 -0.5264070878851032 0.0690680479201058
O -1.8694528053231245 -0.0979029571197035 0.3733670014149510 -0.3117950550350966
N -1.9980132203463519 -0.3009826566625843 0.0716724394982572 0.5776243102962968
N -3.3472048856354704 -0.4363382783800299 0.0983165323553293 0.0604184539076988
O -1.8724139725875564 -0.3214016356068384 -0.2605711998023553 -0.3968494342195521
O -0.9489431142491256 -0.0167805633853949 0.1411581436469791 -0.9828651838991298
N -0.7611138658389072 0.0655645187145734 0.1261237207966113 0.7759263489545838
N -1.0923211457672257 -1.2815916503175844 0.0893285461698757 0.9970342621901004
O -1.1399397800656692 -1.2524156951836343 -0.1904441222143740 -0.3970377457969525
O -1.1399597711951914 -1.2467215751818981 0.6314204719939299 -0.3893757401670396
N 1.7194307690043726 -1.3404578910518743 -0.0642715042292972 0.1691966627363242
O 1.3961816026639593 -0.9595658668808843 -0.0306040191358229 -0.6800109224217911
O 0.3694184567442900 0.4639710189621626 -0.3545756581550161 -0.9821368279659007
N 0.2464782042115663 0.4741933072423682 -0.2281208158948955 0.8921713087406896
O 0.6049201114848828 0.5056796971706313 0.3016390659854259 -0.3335771210350215
N 0.7834532499781315 -0.1701069994715049 -0.1062460706817492 0.9988617281482304
N 2.3708264943921074 1.5778057569360540 -0.1265663699714770 0.0655379221577991
N 1.1415839909083789 1.0084206829571554 -0.0433147836991681 0.9908754307264420
O 0.9858852485477130 1.0833681585096866 -0.3857587689401027 -0.6595771554465193
O 1.0904944906566574 1.1307357749557017 0.3205084234801965 -0.5578053818499882
N -0.0279177576552726 2.2931000516807809 -0.0259139986826092 0.0943160920587207
