21
s                      x[A]                      y[A]                      z[A]                      q[e]
N -0.1371430846184624 -1.3601712574143443 -0.1939806120281165 0.0690680479201058
O -0.4596980623513723 0.2712083543190689 0.4810754552903572 -0.3117950550350966
N -0.4270728538468934 -0.0355302516696960 0.2494814641472673 0.5776243102962968
N 0.0651237038876954 0.0499226780255496 -0.4564008341669056 0.0604184539076988
O -0.1383371113020103 -0.2196984811703429 0.1530881250928038 -0.3968494342195521
O -0.3053318573483800 0.3230661680257068 0.0883476543641411 -0.9828651838991298
N -0.3517582253064207 0.2937490418448252 0.2865184681727356 0.7759263489545838
N 0.9143775259344086 0.3705816778788062 -0.2764015051668310 0.9970342621901004
O 0.8984686430485722 0.6541994436273515 -0.2499555780248580 -0.3970377457969525
O -0.2102490987711423 -0.6896871465472287 -0.4644614667576291 -0.3893757401670396
N -0.4439944653373711 0.2304756534010007 0.0779449660328294 0.1691966627363242
O 0.0136560180978750 0.1588449158139402 -0.1121269403962502 -0.6800109224217911
O -0.1317791219481548 0.4923186016550466 0.4941025659280839 -0.9821368279659007
N -0.2815348496073779 0.4004855490243987 0.4754065642347070 0.8921713087406896
O -0.0801331165637981 -0.2001571701048576 0.5691252495346799 -0.3335771210350215
N 0.3308324501429236 0.1305123415596107 -0.0446312189849972 0.9988617281482304
N 1.4728151936728409 -0.1889694138481381 0.6303082944102433 0.0655379221577991
N 0.4080627509116869 0.0166432916905086 -0.1858981576672862 0.9908754307264420
O 0.3298870017923121 0.3890173556465149 -0.1373882181229369 -0.6595771554465193
O 0.2441211177378344 -0.3194631132773434 -0.0854289071438617 -0.5578053818499882
N -0.9709087613151033 0.3271056342865066 0.8242943536559409 0.0943160920587207
