21
s                      x[A]                      y[A]                      z[A]                      q[e]
N       -2.2136399348783780        1.6967020083031730       -0.2988130191242128        0.0690680479201058
O       -1.9319304885120934       -0.1095835552860871        0.3405927624245749       -0.3117950550350966
N       -2.0445685708104637       -0.2418016844550100       -0.0003795101211869        0.5776243102962968
N       -3.3770364767868086       -0.4656721231757844        0.0006332600330662        0.0604184539076988
O       -1.9008546530665316       -0.2176055961771034       -0.3224707718787467       -0.3968494342195521
O       -0.5557150976868825       -0.9818366157653375       -0.0322538489529463       -0.9828651838991298
N       -0.3343247076819582       -0.9641118714595859       -0.0386800502093182        0.7759263489545838
N       -1.0724476406740073       -1.2434726038610093        0.1492054140287181        0.9970342621901004
O       -1.0687052725224357       -1.2869801792869235       -0.1280822251589326       -0.3970377457969525
O       -1.1245342755275540       -1.2266404158511519        0.4178351326950716       -0.3893757401670396
N        0.5379774163892777        1.7878641056328302        0.1672905210640294        0.1691966627363242
O        0.5273610029387240        1.3410495375576958        0.1068810988753057       -0.6800109224217911
O        0.7346422695732704       -0.3890744498592399        0.3376092514274371       -0.9821368279659007
N        0.6805274716912419       -0.5580658982130107        0.2137818787189485        0.8921713087406896
O        0.8856996029526186       -0.2903662877585163       -0.3397643750507087       -0.3335771210350215
N        0.6304244810180708        0.2694891261585869        0.0926345376693020        0.9988617281482304
N        2.9645538926059913        0.0875282705547006       -0.1120653404112402        0.0655379221577991
N        1.6998398917241984       -0.3606331247660345       -0.0704242877743706        0.9908754307264420
O        1.6095561083680445       -0.4475066797249347        0.2850716776018078       -0.6595771554465193
O        1.6523797205469646       -0.4196814549420355       -0.4351692914368531       -0.5578053818499882
N        1.6657380325052160       -2.0609878530293284       -0.0767923355431842        0.0943160920587207

        RMSE         7.855507398E+00 kcal/mol

Coordinates in bohr
s                   x[bohr]                   y[bohr]                   z[bohr]                      q[e]
+       -4.1831732172964360        3.2063021122072710       -0.5646747688659546        0.0690680479201058
-       -3.6508195167098072       -0.2070829073446711        0.6436270412955706       -0.3117950550350966
+       -3.8636746435505067       -0.4569389602943424       -0.0007171701908826        0.5776243102962968
+       -6.3816740568080910       -0.8799927770626955        0.0011966880286935        0.0604184539076988
-       -3.5920946985979008       -0.4112149801416984       -0.6093814423158191       -0.3968494342195521
-       -1.0501493384102509       -1.8554023037428578       -0.0609509410129532       -0.9828651838991298
+       -0.6317821344926479       -1.8219073913612189       -0.0730947014145691        0.7759263489545838
+       -2.0266323247672808       -2.3498226658072219        0.2819573689498205        0.9970342621901004
-       -2.0195602739001748       -2.4320400677448992       -0.2420403270896069       -0.3970377457969525
-       -2.1250617994372103       -2.3180144403763765        0.7895939663880152       -0.3893757401670396
+        1.0166299786571225        3.3785735091826532        0.3161332681961495        0.1691966627363242
-        0.9965678648009493        2.5342163466559167        0.2019760048623065       -0.6800109224217911
-        1.3882726896782416       -0.7352441526471374        0.6379890226186884       -0.9821368279659007
+        1.2860105423467025       -1.0545917075802154        0.4039892013646539        0.8921713087406896
-        1.6737296790071887       -0.5487127599294738       -0.6420616160331761       -0.3335771210350215
+        1.1913296119080410        0.5092606422286823        0.1750539059533873        0.9988617281482304
+        5.6021949411852425        0.1654044595833589       -0.2117728015334455        0.0655379221577991
+        3.2122318524866236       -0.6814978375758679       -0.1330826164739884        0.9908754307264420
-        3.0416202283733251       -0.8456650639930980        0.5387073967922273       -0.6595771554465193
-        3.1225451270943041       -0.7930830097741168       -0.8223507790251929       -0.5578053818499882
+        3.1477886781938276       -3.8947025901207604       -0.1451164827108789        0.0943160920587207
