21
s                      x[A]                      y[A]                      z[A]                      q[e]
N       -1.8225606512808592        1.1541361443242277       -1.2965474569182942        0.0707249461841811
O       -1.6883827224951231        0.2903938360540766        0.0470094252163316       -0.3496602100029151
N       -1.4797800711631395        0.1293395006374546       -0.4327034293154153        0.9824851761690530
N       -3.1313530804013965       -0.2516372794583669        0.0927915845442321        0.1071394941056757
O       -1.5267803597995644       -0.0498810383794715       -0.4705136683560723       -0.8194842575378962
N       -0.6180654573860656       -0.1769646228840274        0.4457893009083937        0.3116552922920345
N       -0.9943900426051179       -1.3086289832213205        1.2874306456608346        0.0918298459672651
N       -1.4272904780281079       -0.4004365754878061        0.5458055386404488        0.5593901217632046
O       -1.0818350937991708       -0.3521047160083589        0.4816329131489570       -0.9963138680841535
N        1.2179103124989121       -0.5812826016831575       -0.0806441467535781        0.9989733053171830
O        1.2572061513756292       -0.6752879623772097       -0.0798816166002480       -0.8354521971080898
N        1.5379188803084272       -1.3743544137566197       -0.2878151211625031        0.2899344186932475
O        1.3145412268186822       -1.0646573524137604       -0.2229021667576327       -0.8678253524624289
N        0.3008321979358272        0.3150574269640229        0.1958458319966164        0.9219570073558310
O        0.5330605343548631        0.2394418143637958        0.3019057035228119       -0.9704818863270434
O        0.4683581230358284        0.3769553047685951       -0.3557599028423672       -0.3320651923316272
N        0.7838539896407511       -0.2227124669936058       -0.0244471907848450        0.9769593393400061
O        1.0858769656497702        0.9672350830567614        0.5749984764083915       -0.1970026432733326
O        0.8784269736421260        1.0669807566410465       -0.4030976440285876       -0.1946060569702309
N        2.2717968286556713        1.3753191606596058       -0.1862541371389285        0.1283355164991325
N        0.3322426810748812        2.2027338916701313        0.3794331982442903        0.1235072004109040

        RMSE         1.552680144E+00 kcal/mol

Coordinates in bohr
s                   x[bohr]                   y[bohr]                   z[bohr]                      q[e]
+       -3.4441404779568741        2.1810012242646595       -2.4501196022344085        0.0707249461841811
-       -3.1905809404706487        0.5487648186633060        0.0888349389740578       -0.3496602100029151
+       -2.7963790604088290        0.2444162334082674       -0.8176909749525350        0.9824851761690530
+       -5.9173997240673657       -0.4755255411316084        0.1753506815358642        0.1071394941056757
-       -2.8851967337491398       -0.0942615013906519       -0.8891419714774700       -0.8194842575378962
+       -1.1679744420654901       -0.3344146711457388        0.8424196883761726        0.3116552922920345
+       -1.8791248424060141       -2.4729503781246431        2.4328913258203193        0.0918298459672651
+       -2.6971881049469077       -0.7567154582881729        1.0314229857884383        0.5593901217632046
-       -2.0443720401894132       -0.6653814807379050        0.9101542988579452       -0.9963138680841535
+        2.3015169359937020       -1.0984649186747593       -0.1523953509854916        0.9989733053171830
-        2.3757753093408156       -1.2761093047113961       -0.1509543778332944       -0.8354521971080898
+        2.9062454869536856       -2.5971534413141617       -0.5438917537625922        0.2899344186932475
-        2.4841228993106483       -2.0119108135170447       -0.4212240479430559       -0.8678253524624289
+        0.5684904638182332        0.5953722507534357        0.3700949852860306        0.9219570073558310
-        1.0073384182208949        0.4524794521302884        0.5705190953717830       -0.9704818863270434
-        0.8850685811711968        0.7123422875511320       -0.6722887827915599       -0.3320651923316272
+        1.4812693627684772       -0.4208655673429811       -0.0461984951201735        0.9769593393400061
-        2.0520100710212432        1.8278094059117345        1.0865896429673840       -0.1970026432733326
-        1.6599864013983805        2.0163014111853466       -0.7617441490313217       -0.1946060569702309
+        4.2930738188428634        2.5989765487411893       -0.3519693089260383        0.1283355164991325
+        0.6278476744193562        4.1625637825204409        0.7170248275882547        0.1235072004109040
