25
s                      x[A]                      y[A]                      z[A]                      q[e]
N        2.0247333945664892        1.4002368160396865       -0.2603446181205906        0.1158659338886357
O        1.8327202991177121       -0.2668911138837047       -0.4454416510148710       -0.2341991647481463
N        3.3462056149760895       -0.5660128691152866        0.0185395910238729        0.0569852111266852
N        2.1518238536972700       -0.4248175945110637        0.0519523782995464        0.3189271149812888
O        1.9125508197571279       -0.1988689170135344        0.3314791863321002       -0.2877498234141676
N        1.3802278212033707       -0.7699527582933787       -0.0360419451762782        0.5692545008206258
O        0.7287831245017133       -0.6981147807865627        0.5583495033227939       -0.2058946535748549
O        1.0824130577197704       -0.7331483223909654       -0.0853969897699308       -0.9992971180892700
N        0.5599967295639584       -0.6346379314369335        0.0629472068406532        0.6691943173322236
N        0.8237936056346102       -2.0160486129999273        0.2905818561488431        0.0628076875181509
N       -1.7326604168717339       -1.0849728121020779       -0.0731325071684512        0.7576134719858190
O       -1.4706012663961683       -0.8564044719346509        0.0266666400877964       -0.9235083265987739
N       -1.2127315315597740       -0.5167609248907047       -0.0220130856881430        0.9955526175656415
O       -1.5979870957347906       -0.9358846582383652       -0.1080283357704724       -0.9936641819349231
O       -0.3414413983700672        0.1200663448402338       -0.0877838359499773       -0.9934394819660318
N       -0.6621522756850692       -0.1713056330628361        0.0535522090861428        0.8475065253219278
N       -0.1210115984008837        0.2767385325926122        0.0158155585802705        0.9207393412409772
O       -0.4217573408762529        0.3249606633924886        0.2843759807031218       -0.6738758902636315
N       -2.0851245145514201        1.7255189407688447       -0.0087445256947825        0.1207489421105395
N       -0.4407888569549322        0.9520317108307738        0.1159840109202907        0.4308753055723465
O       -0.7933229558743927        0.9745960595706938       -0.1896822674738748       -0.7095764258838037
N       -1.0538284769576207        0.9249903202234289       -0.0056398940483639        0.9977500474782615
O       -0.8898159254794088        1.0279657967515505        0.1440026935497153       -0.9963537733476465
O       -0.0102528673162056        2.2641626864795215       -0.2554362737047116       -0.1586318904925156
N       -0.0543720349310179        2.2200227599627698       -0.0925652777074332        0.3123697133706422

        RMSE         9.134440101E-01 kcal/mol

Coordinates in bohr
s                   x[bohr]                   y[bohr]                   z[bohr]                      q[e]
+        3.8261915927992072        2.6460640930980825       -0.4919800264848215        0.1158659338886357
-        3.4633394298996261       -0.5043511105585773       -0.8417627252898702       -0.2341991647481463
+        6.3234121717739944       -1.0696093061124994        0.0350347495131160        0.0569852111266852
+        4.0663577537150744       -0.8027889069017070        0.0981757665523212        0.3189271149812888
-        3.6141972503608306       -0.3758077880219807        0.6264048784572732       -0.2877498234141676
+        2.6082525728117458       -1.4549998427153144       -0.0681094054119317        0.5692545008206258
-        1.3772005101636728       -1.3192457398206323        1.0551276435654859       -0.2058946535748549
-        2.0454642337097422       -1.3854495386577856       -0.1613769226036931       -0.9992971180892700
+        1.0582404500279543       -1.1992918792428870        0.1189529812913801        0.6691943173322236
+        1.5567442985528261       -3.8097797341789814        0.5491201251484973        0.0628076875181509
+       -3.2742536563091669       -2.0503014684407437       -0.1382004094164541        0.7576134719858190
-       -2.7790336332402066       -1.6183699045738251        0.0503926464520899       -0.9235083265987739
+       -2.2917304583549893       -0.9765366203817152       -0.0415987031268255        0.9955526175656415
-       -3.0197579629545133       -1.7685656890882095       -0.2041439683951921       -0.9936641819349231
-       -0.6452307308127698        0.2268925086328186       -0.1658874081875763       -0.9934394819660318
+       -1.2512864543934294       -0.3237207302369337        0.1011990085860641        0.8475065253219278
+       -0.2286787789815607        0.5229600349611219        0.0298870742378460        0.9207393412409772
-       -0.7970058656574780        0.6140866553588930        0.5373927201873805       -0.6738758902636315
+       -3.9403142699803899        3.2607582223432048       -0.0165247586601677        0.1207489421105395
+       -0.8329702187984289        1.7990791962212256        0.2191780155714593        0.4308753055723465
-       -1.4991631156412677        1.8417196355389940       -0.3584475363814608       -0.7095764258838037
+       -1.9914472046582488        1.7479783739218160       -0.0106578551280074        0.9977500474782615
-       -1.6815084012268748        1.9425738221984767        0.2721256521371944       -0.9963537733476465
-       -0.0193751112282863        4.2786473809271337       -0.4827045998093898       -0.1586318904925156
+       -0.1027482549034502        4.1952350086126389       -0.1749230235939957        0.3123697133706422
