21
s                      x[A]                      y[A]                      z[A]                      q[e]
N       -1.7105483861843289        0.1394919839258497       -1.7750453454348618        0.0707249461841811
O       -1.6368783178317237        0.1979454169733895       -0.2107018615022394       -0.3496602100029151
N       -1.4561527167943871       -0.2576171085287238       -0.4377351728311068        0.9824851761690530
N       -3.1337639459627615       -0.1544638844410346        0.0983903591003214        0.1071394941056757
O       -1.5285140392177543       -0.4021687238549057       -0.3965362894573706       -0.8194842575378962
N       -0.6703891975779741       -0.2370825400657613        0.2932912875287266        0.3116552922920345
N       -1.1097753081749038       -0.3472538122941224        1.8159232312557265        0.0918298459672651
N       -1.4504283480211062       -0.2891088184391141        0.6100793704903339        0.5593901217632046
O       -1.1092448282449463       -0.2581071769837603        0.5008077808199305       -0.9963138680841535
N        0.9536047396245013        0.7811107349950812       -0.1310472470446690        0.9989733053171830
O        0.9649733052249461        0.8705773514624905       -0.1555523586341102       -0.8354521971080898
N        1.0518648361537801        1.6504300787179129       -0.0763586454748137        0.2899344186932475
O        0.9519582571756356        1.2734682022490278       -0.0435376998117146       -0.8678253524624289
N        0.3759987903158360       -0.3779442704124218        0.0369001269576082        0.9219570073558310
O        0.4947133686169820       -0.2715835629719938       -0.1677403460676594       -0.9704818863270434
O        0.7979587045223450       -0.3344899794139146        0.4282465395568375       -0.3320651923316272
N        0.6924266505553406        0.3012993088705174        0.0158326990618556        0.9769593393400061
O        1.1246862401735211       -0.8532891909571138       -0.6002628911520608       -0.1970026432733326
O        1.3936242352811425       -0.8111660432859521        0.3668167678026931       -0.1946060569702309
N        2.5854462634407014       -0.7291544570338760       -0.4514314207899025        0.1283355164991325
N        1.0216713158768953       -2.1869220601807235       -0.0221813492872611        0.1235072004109040

        RMSE         5.631019243E-01 kcal/mol

Coordinates in bohr
s                   x[bohr]                   y[bohr]                   z[bohr]                      q[e]
+       -3.2324679742322528        0.2636016463166216       -3.3543495631405738        0.0707249461841811
-       -3.0932517214020705        0.3740626258692575       -0.3981688123633788       -0.3496602100029151
+       -2.7517298315827472       -0.4868257803516341       -0.8271995921307402        0.9824851761690530
+       -5.9219555997036437       -0.2918944378679220        0.1859308320850548        0.1071394941056757
-       -2.8884729130388616       -0.7599887443106502       -0.7493449858797008       -0.8194842575378962
+       -1.2668519808878074       -0.4480210698521714        0.5542402084121985        0.3116552922920345
+       -2.0971713932461280       -0.6562146012570319        3.4315975719297436        0.0918298459672651
+       -2.7409123423601236       -0.5463364873046378        1.1528829250184496        0.5593901217632046
-       -2.0961689314634566       -0.4877518755143793        0.9463895472479805       -0.9963138680841535
+        1.8020517898288300        1.4760853627957713       -0.2476434064096372        0.9989733053171830
-        1.8235352652529715        1.6451527652905500       -0.2939513559874637       -0.8354521971080898
+        1.9877364613302160        3.1188608379946601       -0.1442969272583276        0.2899344186932475
-        1.7989403889301008        2.4065061317298011       -0.0822743287765374       -0.8678253524624289
+        0.7105347372003751       -0.7142111617654515        0.0697311339445030        0.9219570073558310
-        0.9348727772887597       -0.5132185541930979       -0.3169833142573933       -0.9704818863270434
-        1.5079234109723589       -0.6320944528023256        0.8092686739374650       -0.3320651923316272
+        1.3084967315176852        0.5693731755550043        0.0299194650537003        0.9769593393400061
-        2.1253489709988407       -1.6124828767224315       -1.1343324675528978       -0.1970026432733326
-        2.6335681264819621       -1.5328816640817191        0.6931832293727470       -0.1946060569702309
+        4.8857853499912158       -1.3779022269509331       -0.8530817497192249        0.1283355164991325
+        1.9306789772434463       -4.1326837514635697       -0.0419166752460427        0.1235072004109040
