21
s                      x[A]                      y[A]                      z[A]                      q[e]
N 0.0271982396310322 -0.0450243496473410 0.3788074219849166 0.0707249461841811
O 0.1028047905701775 0.2923706490520626 0.3139071413070606 -0.3496602100029151
N 0.3753602633266870 -0.1822757987999578 0.3124065700307755 0.9824851761690530
N 0.0336455013345946 -0.0110064785049164 -0.1884906338747726 0.1071394941056757
O 0.2563752176561260 -0.3289973246749860 0.3210086433514459 -0.8194842575378962
N 0.1011333531180939 0.1261678450713060 0.2906840760132277 0.3116552922920345
N 0.0297635653426700 -0.0163100572817968 0.2435969207611633 0.0918298459672651
N 0.0909413909882653 0.0397421523449014 -0.5502765764482526 0.5593901217632046
O 0.0474155593189914 0.0585272373089142 -0.1987852685096822 -0.9963138680841535
N 0.2263184329861634 0.0842526607359942 -0.4262996754403214 0.9989733053171830
O 0.2005788333228679 0.0998851249772585 -0.3289608275151619 -0.8354521971080898
N 0.0344590417299537 0.0064671435544077 0.4289357205285994 0.2899344186932475
O 0.0348277983442140 -0.0024864575857580 0.0417106766875025 -0.8678253524624289
N 0.0011226634755781 0.0786092640700430 -0.3512905311785383 0.9219570073558310
O 0.1206954108441316 0.2419185118424070 -0.1782909209715371 -0.9704818863270434
O 0.2581497817419079 -0.4185796355368539 -0.1999451376313122 -0.3320651923316272
N 0.0923179576573279 0.0130189618433482 0.3959824153196895 0.9769593393400061
O 0.1996732340021856 -0.5144378965863143 -0.0956061786864365 -0.1970026432733326
O 0.2308441239756628 0.4896803255634232 -0.0748290046308954 -0.1946060569702309
N 0.0218175340914991 -0.0000560325664722 0.1847041146798808 0.1283355164991325
N 0.0371606778620773 0.0045553074500130 -0.1492127767087655 0.1235072004109040
