21
s                      x[A]                      y[A]                      z[A]                      q[e]
N       -1.9166415101611967        1.3769350038827681       -0.9279401281765538        0.0707249461841811
O       -1.6932943280847041        0.1978615256809845        0.1352248114476117       -0.3496602100029151
N       -1.5047277543632223        0.1725284141025648       -0.3779796981145282        0.9824851761690530
N       -3.1187845337199982       -0.3948378215447640        0.0850096497508062        0.1071394941056757
O       -1.5499269746477042        0.0077189500380700       -0.4589334747663013       -0.8194842575378962
N       -0.6173023180083212       -0.2849339450522598        0.3501779418134350        0.3116552922920345
N       -0.9106339453295487       -1.6440881050318374        0.8896275477138664        0.0918298459672651
N       -1.4074211887125079       -0.5837467825260363        0.3849795762828765        0.5593901217632046
O       -1.0641580173733569       -0.5025485999074635        0.3479557010453557       -0.9963138680841535
N        1.2773700308566929       -0.5095687984860791       -0.0412990771577539        0.9989733053171830
O        1.3249505212285437       -0.5996398953035738       -0.0390525913362636       -0.8354521971080898
N        1.6831435774982764       -1.2656485308539338       -0.2361822790069399        0.2899344186932475
O        1.4281409600404815       -0.9789109368843346       -0.1834683830519263       -0.8678253524624289
N        0.2643768534706990        0.2935891727586197        0.1790711886669260        0.9219570073558310
O        0.4940779953032924        0.2368438228697673        0.3011931283821471       -0.9704818863270434
O        0.4658458787805826        0.3828241477750258       -0.3572239918438468       -0.3320651923316272
N        0.8096048051388107       -0.1932951393005117       -0.0125160587837584        0.9769593393400061
O        0.9662264140644220        1.0188375185328908        0.5819177747302382       -0.1970026432733326
O        0.8009610626261267        1.1036301034562996       -0.4055812382072967       -0.1946060569702309
N        2.1477907908286671        1.5343553878782124       -0.1176415381334766        0.1283355164991325
N        0.1175269166138765        2.1841353396907346        0.3471886035818814        0.1235072004109040

        RMSE         1.537569761E+00 kcal/mol

Coordinates in bohr
s                   x[bohr]                   y[bohr]                   z[bohr]                      q[e]
+       -3.6219275348885587        2.6020300498946431       -1.7535527030759195        0.0707249461841811
-       -3.1998625298712247        0.3739040943023014        0.2555378590026606       -0.3496602100029151
+       -2.8435233491216705        0.3260314515134235       -0.7142781104196869        0.9824851761690530
+       -5.8936486130444914       -0.7461353466919962        0.1606449560501180        0.1071394941056757
-       -2.9289374965435795        0.0145867015480446       -0.8672585771130205       -0.8194842575378962
+       -1.1665323176460010       -0.5384471199950206        0.6617404052038993        0.3116552922920345
+       -1.7208487572179838       -3.1068762446331171        1.6811524188418741        0.0918298459672651
+       -2.6596405898329385       -1.1031215455914001        0.7275059630694366        0.5593901217632046
-       -2.0109672070458378       -0.9496792185573872        0.6575409787674025       -0.9963138680841535
+        2.4138795191867648       -0.9629454712172990       -0.0780439450623062        0.9989733053171830
-        2.5037936149045459       -1.1331551760219603       -0.0737987021149654       -0.8354521971080898
+        3.1806803912950454       -2.3917290944019967       -0.4463198230095843        0.2899344186932475
-        2.6987952830249222       -1.8498735719267263       -0.3467049966487294       -0.8678253524624289
+        0.4995998469699160        0.5548031299135153        0.3383955035406778        0.9219570073558310
-        0.9336720957384619        0.4475699597303055        0.5691725235121171       -0.9704818863270434
-        0.8803211275685274        0.7234327935065946       -0.6750555100276514       -0.3320651923316272
+        1.5299313515670048       -0.3652748746601872       -0.0236519232714342        0.9769593393400061
-        1.8259032977649714        1.9253238763682279        1.0996652217760143       -0.1970026432733326
-        1.5135970455190553        2.0855586393430952       -0.7664374618358633       -0.1946060569702309
+        4.0587363694466614        2.8995114622104374       -0.2223102880498741        0.1283355164991325
+        0.2220936847697461        4.1274176129492890        0.6560913746499026        0.1235072004109040
