25
s                      x[A]                      y[A]                      z[A]                      q[e]
N -2.2667708833734173 -0.5789750483141098 -0.4801677735936831 0.1158659338886357
O -1.3714211449126392 0.8630080561565634 -0.5508235279184822 -0.2341991647481463
N -2.6728348652123550 1.7911421665767651 -0.3904428178939301 0.0569852111266852
N -1.6849233429339683 1.1567244162313037 -0.1263080705859967 0.3189271149812888
O -1.6095605673875431 0.8797320193982643 0.1949799025503861 -0.2877498234141676
N -0.8208038110096378 1.1907992960326237 0.1911915136303411 0.5692545008206258
O -0.4197196155312083 0.6282256537385332 -0.4055009618369220 -0.2058946535748549
O -0.7441820635047096 0.9019719901646450 0.2480721877138011 -0.9992971180892700
N -0.4529454457014328 0.4461642666335102 0.0805375460915945 0.6691943173322236
N 0.1426218690530465 2.0439844494921000 0.4026799191150015 0.0628076875181509
N -0.2603760847700440 -1.9324628007314497 0.1043550638681082 0.7576134719858190
O -0.1064476119442622 -1.6046317057220576 0.0755406649647512 -0.9235083265987739
N 0.1150721964443244 -1.2658948861630428 0.2195760836539619 0.9955526175656415
O -0.1802589236457239 -1.7596194928328464 0.1821701340791235 -0.9936641819349231
O 0.4104212750112931 -0.2815197178771502 0.4652985426620914 -0.9934394819660318
N 0.2820724835792098 -0.6543630201562314 0.2406500496298245 0.8475065253219278
N 0.5367114917304716 -0.0170647913096282 0.4095172691484350 0.9207393412409772
O 0.7327002239687332 -0.2788458065281021 0.1734284229705723 -0.6738758902636315
N 2.8325136745871391 0.1340719141628691 -0.5119619938864045 0.1207489421105395
N 1.2658250070671631 -0.1395332213820346 0.5280660758761742 0.4308753055723465
O 1.4872611411466596 -0.1570034399523228 0.1103734479862460 -0.7095764258838037
N 1.6009490808458280 0.0754342882181209 -0.0827152863050070 0.9977500474782615
O 1.6005349193453275 0.1763480218090397 0.1352543977130613 -0.9963537733476465
O 2.1350954005467111 -0.5593185281839707 1.4143317926324974 -0.1586318904925156
N 2.1290949873914462 -0.3851211161860303 1.3986746001545178 0.3123697133706422
