25
s                      x[A]                      y[A]                      z[A]                      q[e]
N 0.0653801603053165 -0.0036802359046114 0.2442315329895063 0.1158659338886357
O -0.1738062693160362 0.4401754078886674 0.3070542812341889 -0.2341991647481463
N -0.0838778850963309 -0.0060378742816536 -0.3910234608940805 0.0569852111266852
N -0.5106331855603822 -0.0327829436049019 0.1396891382785456 0.3189271149812888
O -0.2394755207257961 -0.3393140754796497 0.2739064172479508 -0.2877498234141676
N 0.0398810486070006 0.1151727383387134 -0.5524267412460460 0.5692545008206258
O -0.1602776021047179 -0.4971799322578344 0.0424299725444126 -0.2058946535748549
O -0.0732696098455187 0.1667169970936699 -0.2744976673113403 -0.9992971180892700
N -0.1840509346061006 -0.0180631885373751 0.2438399554006961 0.6691943173322236
N 0.0175003204273544 -0.0210469858376125 0.3800580506061065 0.0628076875181509
N 0.0593856823612332 0.0044226744128539 0.2963310645806678 0.7576134719858190
O 0.0356757290487176 -0.0751119573855021 -0.0568950648270317 -0.9235083265987739
N 0.1082246922606059 -0.0100857349231139 -0.4754623839367131 0.9955526175656415
O 0.0690498017116591 0.0518742828926064 0.0965420189755484 -0.9936641819349231
O -0.0431451424625011 0.1160533895834898 -0.1237606963552686 -0.9934394819660318
N -0.0259645810033737 -0.0527380259937007 0.2967092073558192 0.8475065253219278
N -0.0780630131239596 0.0199108288668388 -0.4042530273639225 0.9207393412409772
O 0.1555611319595071 -0.2566441619113569 -0.2264177288400427 -0.6738758902636315
N -0.0646049664914784 0.0229088504582285 0.2204731001041104 0.1207489421105395
N 0.2613306095546976 0.0755984390949478 -0.4891663804074584 0.4308753055723465
O 0.3497047772470529 -0.2118745179645329 -0.1259522290030143 -0.7095764258838037
N 0.4479127702495563 -0.0078322571531998 0.1038929991445777 0.9977500474782615
O 0.3053814185894390 0.1260768482328150 -0.0350661856915553 -0.9963537733476465
O -0.0341015702631242 -0.3705874336876238 -0.1401496724761205 -0.1586318904925156
N -0.0306801218115639 -0.2017318284582032 -0.0949770652281335 0.3123697133706422
