21
s                      x[A]                      y[A]                      z[A]                      q[e]
N -2.0056769816453595 1.6994566481742164 0.1298463988326747 0.0690680479201058
O -1.8791785571590980 -0.1926003554499300 0.3588807445374911 -0.3117950550350966
N -2.0007353673728323 -0.2782084746655751 0.0030597604783459 0.5776243102962968
N -3.3523412404825974 -0.3804214738352797 -0.0124749403438468 0.0604184539076988
O -1.8679861243809217 -0.1833489281479336 -0.3131003991147926 -0.3968494342195521
O -0.9484500308241001 -0.1142111644463338 0.1103529053758749 -0.9828651838991298
N -0.7608083510492331 -0.0309632891866381 0.0982300240824659 0.7759263489545838
N -1.0804786960173676 -1.3756003623157949 -0.0519357399487475 0.9970342621901004
O -1.1133226142771615 -1.3313928210890258 -0.3317098706819084 -0.3970377457969525
O -1.1553541840229054 -1.3646657538988458 0.2185034083023003 -0.3893757401670396
N 1.7220465233840330 -1.2161664544231585 -0.4501437872587454 0.1691966627363242
O 1.3670943382707681 -1.0534275925661081 -0.1651592628438009 -0.6800109224217911
O 0.3661140579995382 0.3844491773963743 -0.3671399321764379 -0.9821368279659007
N 0.2430733096538664 0.3911253026507079 -0.2405459686566434 0.8921713087406896
O 0.5984606235343178 0.4009039375791425 0.2896366507685565 -0.3335771210350215
N 0.7720962813729915 -0.2629167250466663 -0.1394610208759109 0.9988617281482304
N 2.3901211356341530 1.5102639519596874 0.5737933520904450 0.0655379221577991
N 1.1568643017572611 0.9693852215711849 0.4043970647432268 0.9908754307264420
O 0.9915342751412082 1.1435811888236600 0.0658197544785486 -0.6595771554465193
O 1.0888172758087584 1.0207060367080698 0.3288285924310366 -0.5578053818499882
N -0.0260575309136644 2.2020290845644781 0.0175614594226672 0.0943160920587207
