25
s                      x[A]                      y[A]                      z[A]                      q[e]
N 1.6964953029588781 0.2878122211808511 -1.6345889767871125 0.1158659338886357
O 1.8081040365939374 -0.3731127185404821 -0.0955998210831832 -0.2341991647481463
N 3.3757338041553413 0.0154850534503384 0.0499206136263874 0.0569852111266852
N 2.1721679658592561 0.0529103336720746 0.1477055248058454 0.3189271149812888
O 1.9135490025824793 0.3899010696019738 0.0547455614748042 -0.2877498234141676
N 1.4951702151491879 0.0325476242845911 0.5553603355714578 0.5692545008206258
O 0.7357597988348099 -0.1436079724636755 0.9669587186573809 -0.2058946535748549
O 1.2288089487365497 -0.0445104398222354 0.4299108364012588 -0.9992971180892700
N 0.6890962722032561 -0.1635290571584108 0.4468825988554502 0.6691943173322236
N 1.1459092574917540 -0.1988339136434628 1.9479848167178342 0.0628076875181509
N -1.1792676234793062 -1.4745140930596050 -0.1719985411442000 0.7576134719858190
O -1.0540782830836177 -1.1634466218020239 -0.0450277391024725 -0.9235083265987739
N -0.9348970602966784 -0.7506625243837621 -0.0651631975313744 0.9955526175656415
O -1.1042851113393402 -1.2875277923935691 -0.1955593398205797 -0.9936641819349231
O -0.3687691241731949 0.1743786177036666 -0.0015974361645777 -0.9934394819660318
N -0.5863800796318343 -0.2162195317293869 0.0976236539103905 0.8475065253219278
N -0.2571802808254757 0.4026248511599846 0.1362247740962317 0.9207393412409772
O -0.6109200455811031 0.3386039773195045 0.3163164679831298 -0.6738758902636315
N -2.5621715105134379 1.0106119080793690 -0.3780770255065628 0.1207489421105395
N -0.8172975587468074 0.8998680316947252 0.1336268033972637 0.4308753055723465
O -1.0769983211346599 0.7921069524009994 -0.2400849054090937 -0.7095764258838037
N -1.3368260977092759 0.6488341298827456 -0.1057097393984735 0.9977500474782615
O -1.2552647745075431 0.8046201546451754 0.0619263858684752 -0.9963537733476465
O -0.8130088690456722 2.2777447119656462 -0.2425194851519315 -0.1586318904925156
N -0.8758200971064997 2.2190592685164794 -0.0881682785519952 0.3123697133706422
