13
s                      x[A]                      y[A]                      z[A]                      q[e]
C 2.4388734288130167 0.7796489972135541 -1.0690202160588422
C 1.4729256489584008 0.2006935514861889 -0.0740108455144783
H 2.0943850677670928 0.5543106123288766 -2.0861449931215437
H 3.4290673364209612 0.3474303992684747 -0.9225261125660079
H 2.4922758632877868 1.8705172967351145 -0.9763582369019819
C 0.0993783816143314 0.8699575500268182 -0.0142488892067016
O 1.7605589446379002 -0.7425473139315716 0.6632225568226616
C -1.0576361773785650 -0.0783572678688572 0.1431196780301446
H -0.0786906686535384 1.4542923007605111 -0.9202448869925612
H 0.0841727685672968 1.5626270223073773 0.8348660796474824
F -1.0555486082327095 -1.0660274205872913 -0.8373780948114685
F -2.2659698454376200 0.6120461871147851 0.0062309750756801
F -1.1036960230020820 -0.7105136009843286 1.3699901808939632
