30
s                      x[A]                      y[A]                      z[A]                      q[e]
N 3.0575887103984165 -1.0722185788972225 -0.1343188168400640 0.2137068255539760
N 2.3179040911503090 -0.7232641668271860 0.1480487726712117 0.4524136045707061
O 2.4513630155151080 -0.9118807453139577 0.6003679933083085 -0.5303393512711568
N 2.4057925517381129 -1.3677140933044558 1.1362192817758590 0.2065219334641430
N 3.8344034466399073 0.1505026680241345 0.3333938103975005 0.0640972179527254
N 2.9190262365719186 -1.4233772558159401 -0.8179445579542308 0.2729192555687945
O 2.8831248041133732 -1.1197921653509200 -0.4605217554574614 -0.5760168259183410
O 1.7817034059308672 1.4714674259125080 0.0530391628980063 -0.7855321009151053
O 1.2102738683285064 1.4860421181728556 -0.1092037296632385 -0.7445427033607991
N 1.5141116444022473 1.5099929663523859 -0.0264256668216363 0.9977538426035523
N 1.8640068734251534 0.0924214906566715 -0.0804186729841058 0.2084365764815679
N 1.1198028929825834 0.2592112084882856 -0.1898813768674187 0.3300899125146088
N 0.3025314236642944 -1.1194681041034389 -0.4149003613953821 0.6266498413516267
O 0.5544932873898987 -1.0006533071902901 -0.5455972177156030 -0.5811225412727979
N 0.2799315415007837 -1.7402380086831901 -0.3760999445467053 0.5003074335780895
O 0.2464015667290671 -1.5969054913819931 -0.3974067217068833 -0.5967490130385100
N 0.1075261107413846 -0.5026694638043456 -1.5607966336864600 0.9708061175491041
O -0.0037436129081737 -0.1553673282421684 -1.5756402605619431 -0.1568654630532827
O 0.1188583357648275 -0.6181885099770253 -1.4669465801804591 -0.7813807259506527
N -0.7415693099130939 0.3664855566753406 -0.0712061277665997 0.1400529194232831
N -0.7979285750399492 -0.1113983452735447 0.4104127565200281 0.1778327620465852
N -1.0544499289782632 -0.0399433840468161 0.8936745406938446 0.7120624373414439
O -1.0300310939276183 -0.0565895340082887 1.0936963947084666 -0.9970019554920370
N -1.7507902258496388 -0.6444245175755074 -0.1951593518577017 0.9931708722557875
N -2.3467753963844120 -1.1128062150809024 -0.4033239628672150 0.8506195801821621
O -2.0786488586332137 -0.9995144357291367 -0.3846899246427303 -0.8089940633040810
O -2.2499098018219956 -0.9673187747286358 -0.3167922191823171 -0.9883399134133223
N -1.5723459226755221 1.6149033000716786 -0.5166206820579056 0.2529889584625400
N -1.4189745806639413 0.8406243730224530 -0.2228314995496390 0.5419198115726583
O -1.4675222260947856 1.2219548839438201 -0.3961545860661820 -0.9654652454832693
