30
s                      x[A]                      y[A]                      z[A]                      q[e]
N        3.0581583459146522       -1.0735189194865871       -0.1300931771197973        0.2137068255539760
N        2.3183814775875460       -0.7252965082648489        0.1537785818601489        0.4524136045707061
O        2.4527952303434719       -0.9101655784434463        0.5956404418267039       -0.5303393512711568
N        2.4056798832909227       -1.3709160396582598        1.1427609052394416        0.2065219334641430
N        3.8344617613536998        0.1501208655454853        0.3347678399377793        0.0640972179527254
N        2.9204202802128916       -1.4241684835219959       -0.8150423213131006        0.2729192555687945
O        2.8850067195011473       -1.1208104992984953       -0.4675798716020689       -0.5760168259183410
O        1.7841259973009946        1.4768858901555584        0.0525190733140575       -0.7855321009151053
O        1.2096351365012989        1.4918097633746132       -0.1095724318831838       -0.7445427033607991
N        1.5170247358404381        1.5113126972686806       -0.0260375086792292        0.9977538426035523
N        1.8638661521610631        0.0909211921248112       -0.0781138895951344        0.2084365764815679
N        1.1197134167110419        0.2570649037148758       -0.1885805268652121        0.3300899125146088
N        0.3008149595164866       -1.1216541624646590       -0.4127508754451793        0.6266498413516267
O        0.5567868279819833       -1.0028290294914441       -0.5497192232286039       -0.5811225412727979
N        0.2778401352905998       -1.7424919799256968       -0.3745833362482915        0.5003074335780895
O        0.2485477739919205       -1.6014262142631097       -0.3996634380278741       -0.5967490130385100
N        0.1065388557317914       -0.5044361240367502       -1.5654579353614193        0.9708061175491041
O       -0.0037877921823834       -0.1526340934731580       -1.5761779737390693       -0.1568654630532827
O        0.1200014876609456       -0.6169802600525217       -1.4711576096867571       -0.7813807259506527
N       -0.7421831400528182        0.3637752150285914       -0.0695741037783947        0.1400529194232831
N       -0.7986381301656496       -0.1138964544922794        0.4130993804811186        0.1778327620465852
N       -1.0564944590021756       -0.0442829361948103        0.8998806773104621        0.7120624373414439
O       -1.0315799306128750       -0.0544308031152309        1.0916050837251816       -0.9970019554920370
N       -1.7549327038260460       -0.6492318421151276       -0.1930911485166157        0.9931708722557875
N       -2.3519368412997443       -1.1170745743076853       -0.4028067228775297        0.8506195801821621
O       -2.0783031820436704       -1.0007041450143701       -0.3873964955101963       -0.8089940633040810
O       -2.2506516236228533       -0.9686135767263823       -0.3191605362411565       -0.9883399134133223
N       -1.5745958015584778        1.6116049592791166       -0.5150327130853747        0.2529889584625400
N       -1.4220486101578464        0.8362830390035388       -0.2201307851022473        0.5419198115726583
O       -1.4687897026933383        1.2302389140741423       -0.3998207617030385       -0.9654652454832693

        RMSE         1.653681966E+00 kcal/mol

Coordinates in bohr
s                   x[bohr]                   y[bohr]                   z[bohr]                      q[e]
+        5.7790817220618163       -2.0286567483270623       -0.2458404755470935        0.2137068255539760
+        4.3811060469747076       -1.3706117603714245        0.2905994036769787        0.4524136045707061
-        4.6351112271784105       -1.7199636720770166        1.1255973042991660       -0.5303393512711568
+        4.5460761249431956       -2.5906558559513937        2.1595051377828103        0.2065219334641430
+        7.2460825674991263        0.2836873215976456        0.6326195330935060        0.0640972179527254
+        5.5187945008351722       -2.6912883903651719       -1.5402067679391598        0.2729192555687945
-        5.4518725699627026       -2.1180248822117993       -0.8835978991046464       -0.5760168259183410
-        3.3715095082081921        2.7909098509469987        0.0992466649264094       -0.7855321009151053
-        2.2858791197182509        2.8191118840620675       -0.2070618871596007       -0.7445427033607991
+        2.8667612762834365        2.8559670877647632       -0.0492037603929744        0.9977538426035523
+        3.5221965620953166        0.1718161521160264       -0.1476138579290539        0.2084365764815679
+        2.1159516965845038        0.4857822644883019       -0.3563655483697932        0.3300899125146088
+        0.5684578879268436       -2.1196191745379855       -0.7799861126343453        0.6266498413516267
-        1.0521746151483475       -1.8950722163975009       -1.0388187778014766       -0.5811225412727979
+        0.5250417623593838       -3.2928326178663267       -0.7078599166695507        0.5003074335780895
-        0.4696872219369199       -3.0262569550860241       -0.7552544402315693       -0.5967490130385100
+        0.2013292590527488       -0.9532461222169323       -2.9582867587577462        0.9708061175491041
-       -0.0071578898448548       -0.2884366340717989       -2.9785446953459020       -0.1568654630532827
-        0.2267699463266940       -1.1659237163130152       -2.7800849696911554       -0.7813807259506527
+       -1.4025228696321368        0.6874355276335684       -0.1314760015653466        0.1400529194232831
+       -1.5092073393608176       -0.2152331056510790        0.7806446917056135        0.1778327620465852
+       -1.9964851805778456       -0.0836826214393151        1.7005280257082656        0.7120624373414439
-       -1.9494035453771235       -0.1028593106765032        2.0628346453980555       -0.9970019554920370
+       -3.3163421788404244       -1.2268703735240685       -0.3648893879465062        0.9931708722557875
+       -4.4445164944308884       -2.1109650071539150       -0.7611943877317192        0.8506195801821621
-       -3.9274238197300608       -1.8910567666875944       -0.7320732784764241       -0.8089940633040810
-       -4.2531151724641845       -1.8304143814129952       -0.6031260035500434       -0.9883399134133223
+       -2.9755548232412656        3.0454919954671458       -0.9732707733828584        0.2529889584625400
+       -2.6872824102862767        1.5803459070822552       -0.4159868956252596        0.5419198115726583
-       -2.7756102739830375        2.3248146164807748       -0.7555517388906805       -0.9654652454832693
