25
s                      x[A]                      y[A]                      z[A]                      q[e]
N       -1.9505978617543243        1.3327493924687392       -0.4678269375147799        0.1158659338886357
O       -1.8573102656307987       -0.1086437733914576        0.4429175290792243       -0.2341991647481463
N       -3.3566876710486393       -0.5289690055834114        0.0391873378742203        0.0569852111266852
N       -2.1266699053482880       -0.4065278207691644       -0.0294284397713839        0.3189271149812888
O       -1.8769910389645357       -0.2989565956107968       -0.3215527324719162       -0.2877498234141676
N       -1.3015621494888108       -0.7975319683089154        0.2954410663121757        0.5692545008206258
O       -0.8266757930158384       -0.6389877031332454       -0.3474866427487527       -0.2058946535748549
O       -1.0232426557997807       -0.6675278847498338        0.2300334351120207       -0.9992971180892700
N       -0.5410562386429878       -0.6041196357687465        0.0845982015991656        0.6691943173322236
N       -0.8294654459248962       -2.0455554644163225        0.4710680152178941        0.0628076875181509
N        1.5732309310605357       -1.0141398490575180       -0.1148619117881193        0.7576134719858190
O        1.3424847600026999       -0.8263263418725664       -0.1439243629970417       -0.9235083265987739
N        1.0848731549740427       -0.4830346299052375       -0.0618699211565211        0.9955526175656415
O        1.4545039346288604       -0.8941289513931466       -0.0703136761864669       -0.9936641819349231
O        0.3357686446160230        0.0830605195738120        0.1341443570973639       -0.9934394819660318
N        0.5975331500937459       -0.1614968943676570       -0.0453753744961916        0.8475065253219278
N        0.1282689959916676        0.2448376871276398        0.0723125810605317        0.9207393412409772
O        0.3751472862208047        0.3113897667871228       -0.1539047032349559       -0.6738758902636315
N        2.0911555933095025        1.7075605654894754       -0.0644473530357177        0.1207489421105395
N        0.4277002353330228        0.9273102625447075        0.0068347696616300        0.4308753055723465
O        0.8013031914973980        0.9128398467030918        0.2120309445917270       -0.7095764258838037
N        0.9944882927950316        0.8708017592161951        0.0213055091357788        0.9977500474782615
O        0.8255138791503494        0.9808400490747637       -0.0658107269287805       -0.9963537733476465
O        0.1321116516935233        2.1659808952342257        0.5365313962740763       -0.1586318904925156
N        0.1143067612434903        2.1599763086531971        0.3874743505779948        0.3123697133706422

        RMSE         4.415504095E-01 kcal/mol

Coordinates in bohr
s                   x[bohr]                   y[bohr]                   z[bohr]                      q[e]
+       -3.6860957396193235        2.5185313456362248       -0.8840647860146065        0.1158659338886357
-       -3.5098077320435390       -0.2053069769461574        0.8369928261242375       -0.2341991647481463
+       -6.3432203869828063       -0.9996065494084204        0.0740533361680572        0.0569852111266852
+       -4.0188236803615869       -0.7682262436329275       -0.0556116914674464        0.3189271149812888
-       -3.5469990035815155       -0.5649460891036538       -0.6076465992645317       -0.2877498234141676
+       -2.4595959977960531       -1.5071169964011621        0.5583027015432370        0.5692545008206258
-       -1.5621908433455978       -1.2075117564571847       -0.6566545870499489       -0.2058946535748549
-       -1.9336483793476977       -1.2614448832833631        0.4347001920599937       -0.9992971180892700
+       -1.0224481095055993       -1.1416206586142676        0.1598674317286914        0.6691943173322236
+       -1.5674625233288038       -3.8655396021805455        0.8901895352248202        0.0628076875181509
+        2.9729755918034377       -1.9164465676318501       -0.2170575555260415        0.7576134719858190
-        2.5369285240060844       -1.5615304763905855       -0.2719776288453856       -0.9235083265987739
+        2.0501131437623075       -0.9128031596327805       -0.1169172063894940        0.9955526175656415
-        2.7486140848493625       -1.6896588389758418       -0.1328735908665484       -0.9936641819349231
-        0.6345107798404636        0.1569616338327338        0.2534960961896328       -0.9934394819660318
+        1.1291740045592653       -0.3051849004668646       -0.0857470306378861        0.8475065253219278
+        0.2423932728116998        0.4626761738617706        0.1366509736293736        0.9207393412409772
-        0.7089256276660602        0.5884413774978463       -0.2908377385339300       -0.6738758902636315
+        3.9517113570742324        3.2268218114070044       -0.1217878467481996        0.1207489421105395
+        0.8082363085732746        1.7523624295358915        0.0129158427910689        0.4308753055723465
-        1.5142435753853700        1.7250173066737515        0.4006804154004877       -0.7095764258838037
+        1.8793105083567252        1.6455768344854809        0.0402615772300617        0.9977500474782615
-        1.5599951443584514        1.8535190656319194       -0.1243642500126875       -0.9963537733476465
-        0.2496548396826359        4.0931106849666516        1.0138973966674889       -0.1586318904925156
+        0.2160084730382939        4.0817636608319079        0.7322204032320423        0.3123697133706422
