21
s                      x[A]                      y[A]                      z[A]                      q[e]
N 1.4221215669583860 -0.0053470628151518 0.1658281152794042 0.0707249461841811
O 0.5439603556540408 -0.1296412449256467 0.3129090255784042 -0.3496602100029151
N 0.8747586378893661 0.2991400489106751 0.2340975877356465 0.9824851761690530
N -0.5963549467560127 0.4573093175452139 0.1149306964366160 0.1071394941056757
O 0.7752635388026324 0.4566332757096553 0.2017257211722085 -0.8194842575378962
N -0.0272245402310022 -0.0234552662913438 -0.5926581969816270 0.3116552922920345
N 0.9225886211718445 0.0486928629253573 -0.2102105828240135 0.0918298459672651
N -0.0357884484957332 0.1450115340974600 -0.5122461888922432 0.5593901217632046
O 0.2733850163777185 0.0955286904017836 -0.6788567666694806 -0.9963138680841535
N -1.2582984526485621 0.1601762708081249 -0.4515091067853212 0.9989733053171830
O -1.2342526100304929 0.1420641289334580 -0.3541915158184520 -0.8354521971080898
N -1.0574262443475579 0.2185824418645746 0.4031670211188293 0.2899344186932475
O -1.0574829240850749 0.2264548004783125 0.0158438457894925 -0.8678253524624289
N -0.0750868315344195 0.1373519707680691 0.3636719460219251 0.9219570073558310
O -0.2889655513473890 -0.0111996906235380 0.3085223727292292 -0.9704818863270434
O -0.2931477968163403 0.6602634269766882 0.2408370246128770 -0.3320651923316272
N -0.7920850189487599 0.2146502031467360 0.5892330947396955 0.9769593393400061
O -0.3391104954135726 -0.1876259279299818 -0.6408950256622686 -0.1970026432733326
O -0.1187935147526124 -0.5079605369994046 0.4570436840720218 -0.1946060569702309
N -0.3180901053564282 -0.3194247750283502 0.3409590527059988 0.1283355164991325
N -0.9698387748643804 -0.5276835423615325 0.0530268003349513 0.1235072004109040
