21
s                      x[A]                      y[A]                      z[A]                      q[e]
N       -2.0317391417460589        1.3649075596928404        0.0846326126692958        0.0707249461841811
O       -1.6079806270152568       -0.1441896785884530        0.3221150456731930       -0.3496602100029151
N       -1.4993523881200277        0.0934171016722882       -0.1575277791316319        0.9824851761690530
N       -3.0006575118501781       -0.8021334346207237        0.0986310239047579        0.1071394941056757
O       -1.5568579329685097       -0.0147580525547526       -0.3025213871608078       -0.8194842575378962
N       -0.4567091174516033       -0.6544557554718242       -0.1393833656447294        0.3116552922920345
N       -0.6394493004396420       -2.0261785030918036       -0.0066927634777044        0.0918298459672651
N       -1.1940415361350309       -1.0433839391464850       -0.0174871013167522        0.5593901217632046
O       -0.9099212174827063       -0.8378613438656136       -0.0488945216315728       -0.9963138680841535
N        0.6828097965642245        0.9358791501881081       -0.1469990098203069        0.9989733053171830
O        0.6428830939682268        1.0280568390495051       -0.1637737908423981       -0.8354521971080898
N        0.4324475512211582        1.7747189346435250       -0.0638272726396688        0.2899344186932475
O        0.4541366369787049        1.3863978487589113       -0.0559799771380459       -0.8678253524624289
N        0.5554774325946671       -0.3618555579532640       -0.1326800297154853        0.9219570073558310
O        0.6509956984541053       -0.1829172932244934       -0.3006952287691981       -0.9704818863270434
O        0.8164821828241335       -0.1914166835087001        0.3537170924127421       -0.3320651923316272
N        0.5938071898731618        0.3904527042324941       -0.0708215884756950        0.9769593393400061
O        1.5285004439680254       -0.4562097310323531       -0.6060762428347969       -0.1970026432733326
O        1.5225081065521782       -0.5450499799685578        0.4514875790715285       -0.1946060569702309
N        2.7676313575046327        0.0873750791874690        0.0818398467872380        0.1283355164991325
N        1.7861811827608582       -1.8333040839834778       -0.2323374881975971        0.1235072004109040

        RMSE         3.842075798E+00 kcal/mol

Coordinates in bohr
s                   x[bohr]                   y[bohr]                   z[bohr]                      q[e]
+       -3.8394305362727930        2.5793014743864506        0.1599324592269215        0.0707249461841811
-       -3.0386430001007905       -0.2724790026499668        0.6087092172116744       -0.3496602100029151
+       -2.8333653790980016        0.1765327375946731       -0.2976843597103953        0.9824851761690530
+       -5.6704208936945646       -1.5158125075060003        0.1863856226534766        0.1071394941056757
-       -2.9420351095568651       -0.0278886774735956       -0.5716825688275209       -0.8194842575378962
+       -0.8630551509830824       -1.2367421390713462       -0.2633963875130863        0.3116552922920345
+       -1.2083840489465234       -3.8289224521336163       -0.0126474899953281        0.0918298459672651
+       -2.2564114857161655       -1.9717098886882134       -0.0330458322167946        0.5593901217632046
-       -1.7195018967854643       -1.5833284710140552       -0.0923972549189461       -0.9963138680841535
+        1.2903235112859597        1.7685552803817384       -0.2777878692738659        0.9989733053171830
-        1.2148729782869181        1.9427458672074434       -0.3094876112201457       -0.8354521971080898
+        0.8172074354328851        3.3537327361405533       -0.1206160646239017        0.2899344186932475
-        0.8581938674262163        2.6199122350782456       -0.1057868253002974       -0.8678253524624289
+        1.0497002164763822       -0.6838079015064021       -0.2507289184798734        0.9219570073558310
-        1.2302035789293890       -0.3456635878043554       -0.5682316296056720       -0.9704818863270434
-        1.5429277118536000       -0.3617251076748831        0.6684284305533398       -0.3320651923316272
+        1.1221329601880110        0.7378486759438023       -0.1338334059889439        0.9769593393400061
-        2.8884472217402668       -0.8621114474199265       -1.1453181101042385       -0.1970026432733326
-        2.8771233451729818       -1.0299951868268495        0.8531878734911744       -0.1946060569702309
+        5.2300652819128191        0.1651149698545068        0.1546548965773096        0.1283355164991325
+        3.3753932458643576       -3.4644426234121104       -0.4390542213702490        0.1235072004109040
