25
s                      x[A]                      y[A]                      z[A]                      q[e]
N -1.8414028389379069 1.1256805919919575 -1.0795155168342501 0.1158659338886357
O -1.8780804607261117 0.1483491699738206 0.3351004126343956 -0.2341991647481463
N -3.3680107800905157 -0.3422075715515743 0.0365722213635796 0.0569852111266852
N -2.1569160492950097 -0.3272450578853117 0.0297287255032485 0.3189271149812888
O -1.8605775428240436 -0.3532272643435460 -0.2722450688067096 -0.2877498234141676
N -1.3857388911963562 -0.5933185157845582 0.5635947167225445 0.5692545008206258
O -0.9103127666638675 -0.5270405344210789 -0.1928923567881058 -0.2058946535748549
O -1.0848909656988293 -0.5749979633327287 0.5009074047696123 -0.9992971180892700
N -0.6126121767688093 -0.5251733020350703 0.2551961872042403 0.6691943173322236
N -0.9698055105879824 -1.6171939214302662 1.1979184125582905 0.0628076875181509
N 1.5754872393194299 -1.1941420311206890 -0.2507201836537816 0.7576134719858190
O 1.3244716655130651 -0.9483036422319205 -0.2634452477375282 -0.9235083265987739
N 1.1234630215158938 -0.5825309871969009 -0.1315040025023537 0.9955526175656415
O 1.4693472469709119 -1.0476198325773074 -0.1742124313316210 -0.9936641819349231
O 0.3820110365162037 0.1153735951143862 0.1908183270418361 -0.9934394819660318
N 0.6164727160630268 -0.1855472413514710 -0.0399063237548107 0.8475065253219278
N 0.1615232337594620 0.2981391682432250 0.1631789600552972 0.9207393412409772
O 0.3858505437055930 0.3422916302038833 -0.1678971543861240 -0.6738758902636315
N 2.2056625895119515 1.5832495491909420 -0.1692213037599183 0.1207489421105395
N 0.5181920957125468 0.9478671095131606 0.0745243707898195 0.4308753055723465
O 0.9383341896894679 0.8973866687177150 0.2679658876169697 -0.7095764258838037
N 1.1262635354204502 0.8621240795038481 0.0118367725907842 0.9977500474782615
O 0.9450866860767670 0.9944466374831193 -0.0625625500105492 -0.9963537733476465
O 0.3399484687077977 2.2046825357298117 0.7283646751962769 -0.1586318904925156
N 0.3443025155984380 2.1850477291958534 0.5525601435520453 0.3123697133706422
