25
s                      x[A]                      y[A]                      z[A]                      q[e]
N 2.1026366716728297 1.0438905405577914 -0.1879403681725406 0.1158659338886357
O 1.5448884792425106 -0.5099093403855023 -0.6630628114893398 -0.2341991647481463
N 3.0322336276448008 -1.1162213757245594 -0.6474827985166285 0.0569852111266852
N 1.9267450098903303 -0.7984438639991607 -0.2946883816782863 0.3189271149812888
O 1.7932199126157835 -0.6158528119586927 0.0720020240266299 -0.2877498234141676
N 1.1013377543987581 -1.0979949779862150 -0.0160458839233122 0.5692545008206258
O 0.6271584438336435 -0.5758334787192021 -0.4416606270180868 -0.2058946535748549
O 0.9591256305658811 -0.8525159893949940 0.0936960583094852 -0.9992971180892700
N 0.5773354938357884 -0.4584358791012236 0.0625409327890325 0.6691943173322236
N 0.3752115893899413 -2.1822464255602996 -0.0047683298237424 0.0628076875181509
N -0.2206996054521208 1.7719025451507284 0.3329465637853878 0.7576134719858190
O -0.2828549086310352 1.4232913896217130 0.2516787859570366 -0.9235083265987739
N -0.4198505447535918 1.0243137660602590 0.3329740001524608 0.9955526175656415
O -0.2591909490487809 1.5758179419402256 0.3821197129198565 -0.9936641819349231
O -0.4686008197613033 -0.0440749070155196 0.4337695273605621 -0.9934394819660318
N -0.4326038042941401 0.3771380331497678 0.2687351077600246 0.8475065253219278
N -0.5128189305419548 -0.3219526388152391 0.3346438377112627 0.9207393412409772
O -0.7563156086573813 -0.0908030415368283 0.1111308452308452 -0.6738758902636315
N -2.8041997129872120 0.0004351000341305 -0.4902984089186477 0.1207489421105395
N -1.2538852492202801 -0.4143787911611135 0.3888376738062550 0.4308753055723465
O -1.4886789653579688 -0.1406742418603694 0.2236127924514101 -0.7095764258838037
N -1.5715089999018634 -0.1456389995468143 -0.0883968884542455 0.9977500474782615
O -1.5410442541753564 -0.3773503339131948 -0.0329325476403964 -0.9963537733476465
O -2.1221200054254368 -1.0196508041714347 1.2727159353055966 -0.1586318904925156
N -2.0869059812387514 -1.1109417593963236 1.1276234648744490 0.3123697133706422
