21
s                      x[A]                      y[A]                      z[A]                      q[e]
N        1.9094470208936278        1.3268553672302141       -1.0057582928482074        0.0707249461841811
O        1.6432444057533491       -0.0861509005676987       -0.3732821458448158       -0.3496602100029151
N        1.5342293596773060        0.3456742255758503       -0.0632412833343973        0.9824851761690530
N        3.1175774830323140       -0.4064530016514912        0.0653641885454932        0.1071394941056757
O        1.6058794895252750        0.3317155538256250        0.1107575811652115       -0.8194842575378962
N        0.6609913973934913       -0.2730292671703255        0.1028775769483131        0.3116552922920345
N        0.9134646883200337       -1.6263543456651626        0.9235283877252067        0.0918298459672651
N        1.4206819259898642       -0.5829705653040452        0.3075104916792257        0.5593901217632046
O        1.0850240635439758       -0.4922523285584859        0.2333536842501084       -0.9963138680841535
N       -1.2477315955698722       -0.5026483404815668       -0.2067982350997107        0.9989733053171830
O       -1.2901371756649951       -0.5852914600260606       -0.2358370497805345       -0.8354521971080898
N       -1.6804291749324676       -1.2660815890967796       -0.2497628132617889        0.2899344186932475
O       -1.4290942211923956       -0.9764212917308368       -0.1794294506071931       -0.8678253524624289
N       -0.2379449854707859        0.2990563367993197        0.0256124865219544        0.9219570073558310
O       -0.4096056435977718        0.2678066626789267       -0.1738243876455738       -0.9704818863270434
O       -0.6119868628541903        0.3364470559685350        0.4662674252336804       -0.3320651923316272
N       -0.8054067488909435       -0.1950499391692909       -0.0376504609079162        0.9769593393400061
O       -0.7696216500138729        1.1331502869430101       -0.4216096033608089       -0.1970026432733326
O       -0.9866381700738147        0.9969663458797750        0.5499920194773099       -0.1946060569702309
N       -2.1467747616836794        1.5358933759661280       -0.1172195007445444        0.1283355164991325
N       -0.1174983965157231        2.1816355932312237        0.3560984841493925        0.1235072004109040

        RMSE         1.527729380E+00 kcal/mol

Coordinates in bohr
s                   x[bohr]                   y[bohr]                   z[bohr]                      q[e]
+        3.6083319205603082        2.5073932521588764       -1.9006077218911228        0.0707249461841811
-        3.1052818840645275       -0.1628016075344999       -0.7054010231699077       -0.3496602100029151
+        2.8992733034266402        0.6532296149680868       -0.1195087053244912        0.9824851761690530
+        5.8913676178252228       -0.7680848559915767        0.1235204147637698        0.1071394941056757
-        3.0346724256927931        0.6268515482849960        0.2093014947204160       -0.8194842575378962
+        1.2490927123573579       -0.5159505391863694        0.1944104448830253        0.3116552922920345
+        1.7261980862015598       -3.0733642962553289        1.7452157218862698        0.0918298459672651
+        2.6846997515087909       -1.1016547076279732        0.5811106099786149        0.5593901217632046
-        2.0503983196294659       -0.9302220855944213        0.4409745535992667       -0.9963138680841535
+       -2.3578709937075684       -0.9498677009260384       -0.3907920275664933        0.9989733053171830
-       -2.4380059262785165       -1.1060405630186028       -0.4456674343211745       -0.8354521971080898
+       -3.1755509138514268       -2.3925474558773474       -0.4719833133886474        0.2899344186932475
-       -2.7005966855280783       -1.8451688244370419       -0.3390725204889577       -0.8678253524624289
+       -0.4496508554658274        0.5651345726333897        0.0484005849184737        0.9219570073558310
-       -0.7740424858416773        0.5060812470360396       -0.3284804865755497       -0.9704818863270434
-       -1.1564875631725404        0.6357927914971128        0.8811177349140404       -0.3320651923316272
+       -1.5219981749992686       -0.3685909658171692       -0.0711490596132179        0.9769593393400061
-       -1.4543741387491769        2.1413437013062406       -0.7967266822148331       -0.1970026432733326
-       -1.8644759263623916        1.8839933500112360        1.0393342879995833       -0.1946060569702309
+       -4.0568163526271519        2.9024178384808144       -0.2215127529700890        0.1283355164991325
+       -0.2220397895951650        4.1226937767577310        0.6729286087330374        0.1235072004109040
