25
s                      x[A]                      y[A]                      z[A]                      q[e]
N       -1.7984117001670310        1.0062429699831861       -1.2416744912010147        0.1158659338886357
O       -1.8811794122978625        0.2362852792520496        0.2922040008120753       -0.2341991647481463
N       -3.3743751551677055       -0.2639314950519442        0.0376151388061118        0.0569852111266852
N       -2.1619812568894217       -0.2738310365947959        0.0511175210840936        0.3189271149812888
O       -1.8602966534979966       -0.3464289841805993       -0.2376656086217838       -0.2877498234141676
N       -1.3985499289788059       -0.4846645249114771        0.6423008033272326        0.5692545008206258
O       -0.9475439606344247       -0.4533429282254809       -0.1312029375745771       -0.2058946535748549
O       -1.0995805899342428       -0.4834079421101673        0.5688802931879634       -0.9992971180892700
N       -0.6343758582299468       -0.4621806146538134        0.3061300087864336        0.6691943173322236
N       -1.0201652996859041       -1.4018036314117919        1.4152487948250660        0.0628076875181509
N        1.4970574151996325       -1.2553685517335100       -0.2671062438956529        0.7576134719858190
O        1.2594502503540494       -0.9963409380907453       -0.2745082426309888       -0.9235083265987739
N        1.0834161490889334       -0.6185390857426244       -0.1407907872211994        0.9955526175656415
O        1.4018207328152927       -1.1023378498896406       -0.1890071566492850       -0.9936641819349231
O        0.3923803791113841        0.1234584571483704        0.1975670140386552       -0.9934394819660318
N        0.6017859023620189       -0.1926278551100616       -0.0369500717258065        0.8475065253219278
N        0.1812830939320399        0.3176606432857532        0.1750835182607018        0.9207393412409772
O        0.3957064677366817        0.3454360860795282       -0.1642315521124376       -0.6738758902636315
N        2.2849129290507730        1.4841877953660096       -0.2129555858481187        0.1207489421105395
N        0.5718496569387240        0.9434575056569009        0.0774299841809529        0.4308753055723465
O        0.9932772714311420        0.8717489320051235        0.2611251683166859       -0.7095764258838037
N        1.1726546929150621        0.8242758590940528        0.0008694080361530        0.9977500474782615
O        0.9971344036150103        0.9656574136746064       -0.0703587700974384       -0.9963537733476465
O        0.4783909768453360        2.2134551413005665        0.7236172373571668       -0.1586318904925156
N        0.4773319408035234        2.1921995629572981        0.5479505201607815        0.3123697133706422

        RMSE         5.914072514E-01 kcal/mol

Coordinates in bohr
s                   x[bohr]                   y[bohr]                   z[bohr]                      q[e]
+       -3.3985055741346688        1.9015236289355040       -2.3464247253371138        0.1158659338886357
-       -3.5549138820926740        0.4465144652636966        0.5521855342978791       -0.2341991647481463
+       -6.3766448878162256       -0.4987582415308024        0.0710823105146320        0.0569852111266852
+       -4.0855524638940919       -0.5174656638143843        0.0965981150612531        0.3189271149812888
-       -3.5154511872169327       -0.6546559020218951       -0.4491229097354200       -0.2877498234141676
+       -2.6428763385484397       -0.9158832148078246        1.2137726084500218        0.5692545008206258
-       -1.7905985774306563       -0.8566939752592444       -0.2479376188714909       -0.2058946535748549
-       -2.0779061678450694       -0.9135086174593885        1.0750279522954034       -0.9992971180892700
+       -1.1987966326568618       -0.8733947821914684        0.5785018753903581        0.6691943173322236
+       -1.9278330191019675       -2.6490249450405190        2.6744326216036329        0.0628076875181509
+        2.8290285088131126       -2.3723027492889712       -0.5047576473625258        0.7576134719858190
-        2.3800160418084495       -1.8828115005732420       -0.5187453977532960       -0.9235083265987739
+        2.0473598016762709       -1.1688694699446369       -0.2660560288356746        0.9955526175656415
-        2.6490572620094963       -2.0831166340174634       -0.3571717618186542       -0.9936641819349231
-        0.7414914535238296        0.2333026718819912        0.3733475479575403       -0.9934394819660318
+        1.1372105416257208       -0.3640138902923887       -0.0698255158777972        0.8475065253219278
+        0.3425753987072012        0.6002916166468277        0.3308598985943210        0.9207393412409772
-        0.7477768500946427        0.6527795965403836       -0.3103526546513621       -0.6738758902636315
+        4.3178596564236145        2.8047084519888053       -0.4024277341393672        0.1207489421105395
+        1.0806392365512032        1.7828762966991223        0.1463214640005330        0.4308753055723465
-        1.8770220096468955        1.6473667316500418        0.4934550525826141       -0.7095764258838037
+        2.2159962093423196        1.5576556255142271        0.0016429430796014        0.9977500474782615
-        1.8843109331040955        1.8248280428629413       -0.1329588060082104       -0.9963537733476465
-        0.9040279271279223        4.1828240080446291        1.3674383982654563       -0.1586318904925156
+        0.9020266390519077        4.1426567863376391        1.0354764134060352        0.3123697133706422
