25
s                      x[A]                      y[A]                      z[A]                      q[e]
N 0.0649983824873752 -0.0048115999652712 0.2432192290061977 0.1158659338886357
O -0.1724383733740074 0.4537808847201470 0.3082091689275558 -0.2341991647481463
N -0.0841569948288446 -0.0009883345183963 -0.3925861646916747 0.0569852111266852
N -0.5160838499578682 -0.0463940855746435 0.1413776750334195 0.3189271149812888
O -0.2283675506503024 -0.3304287672322533 0.2724964914119485 -0.2877498234141676
N 0.0244300165879301 0.1360459302869804 -0.5567150181499090 0.5692545008206258
O -0.1547648065636075 -0.5024979443211520 0.0444020462836834 -0.2058946535748549
O -0.0633713431763981 0.1416389172618591 -0.2606456912784871 -0.9992971180892700
N -0.1886573354390979 -0.0046810736972079 0.2387809288762966 0.6691943173322236
N 0.0188646407283623 -0.0307370872606486 0.3907592921601035 0.0628076875181509
N 0.0568165476889151 0.0047057202572023 0.2824188201620443 0.7576134719858190
O 0.0304532626880093 -0.0745168603447469 -0.0589069007568053 -0.9235083265987739
N 0.1012230283930129 -0.0094817488982178 -0.4859339161200465 0.9955526175656415
O 0.0631716899878036 0.0491373034947366 0.0914024450762648 -0.9936641819349231
O -0.0407650709394446 0.1084451623759849 -0.1232424960619309 -0.9934394819660318
N -0.0321433591961955 -0.0501383967237859 0.2928907260757487 0.8475065253219278
N -0.0840244165968721 0.0244416967051123 -0.3966972798667176 0.9207393412409772
O 0.1549604065344544 -0.2545750459537830 -0.2282597847731702 -0.6738758902636315
N -0.0667233134847254 0.0245909204622212 0.2183164624396802 0.1207489421105395
N 0.2680709788319584 0.0744672928894026 -0.4876958232530663 0.4308753055723465
O 0.3492272930957513 -0.2084863530226608 -0.1269305385189745 -0.7095764258838037
N 0.4509639559109133 -0.0062133888410633 0.0973615607030097 0.9977500474782615
O 0.3063677465553887 0.1227253221856799 -0.0394733855345411 -0.9963537733476465
O -0.0295298862694831 -0.3673414637676946 -0.1419968668800580 -0.1586318904925156
N -0.0351878234878676 -0.2011814975894152 -0.0847606593432736 0.3123697133706422
