21
s                      x[A]                      y[A]                      z[A]                      q[e]
N       -1.8243837435814552        0.1311321747477558       -1.9571709972280431        0.0690680479201058
O       -1.8961098534576488        0.2400202599406711       -0.0328903077895565       -0.3117950550350966
N       -2.0260286505923331       -0.1194007265734356       -0.0136881591048744        0.5776243102962968
N       -3.3806441866150339       -0.1681013589633558       -0.0481167448605802        0.0604184539076988
O       -1.8764489595843261       -0.4293987307476047       -0.0943669988822278       -0.3968494342195521
O       -0.8345092940789745        0.3515583775515484        0.5542466747756598       -0.9828651838991298
N       -0.6405577749398952        0.4417890557205650        0.4941600676936574        0.7759263489545838
N       -1.2441591543720636       -0.2616090605383496        1.1459955927233074        0.9970342621901004
O       -1.2447147846158764       -0.5408261784613513        1.1171365972645484       -0.3970377457969525
O       -1.2956246718523714        0.0040270170867028        1.1901208758248503       -0.3893757401670396
N        1.2696414777901646       -1.5938944040936556       -0.2061796872129868        0.1691966627363242
O        1.0857507850202628       -1.1941629193776091       -0.1131786882617910       -0.6800109224217911
O        0.4234332907416176        0.4341781704349235       -0.2487721815864136       -0.9821368279659007
N        0.3413013894311518        0.5638330116987222       -0.0962477175736135        0.8921713087406896
O        0.8052084191003515        0.4396578759833383        0.3391175812730120       -0.3335771210350215
N        0.7056619311408705       -0.1898078586477004       -0.0601763928272450        0.9988617281482304
N        2.6479227696722010        1.0500975169276923       -0.5278035721417584        0.0655379221577991
N        1.3737726408659308        0.8670502945392022       -0.1468583251760154        0.9908754307264420
O        1.1485493521340271        0.8902762793113855       -0.4482062658213549       -0.6595771554465193
O        1.4212553672652291        0.9106198921003178        0.2200547049871864       -0.5578053818499882
N        0.5896277496951630        2.3617434146373841        0.0615138350178719        0.0943160920587207

        RMSE         7.345356267E+00 kcal/mol

Coordinates in bohr
s                   x[bohr]                   y[bohr]                   z[bohr]                      q[e]
+       -3.4475856231064310        0.2478038965089354       -3.6985171654501836        0.0690680479201058
-       -3.5831283268169329        0.4535725558490652       -0.0621536739042740       -0.3117950550350966
+       -3.8286392719504017       -0.2256346724044680       -0.0258668718699046        0.5776243102962968
+       -6.3884916403235588       -0.3176655297580179       -0.0909274698350271        0.0604184539076988
-       -3.5459746220146613       -0.8114459997321802       -0.1783277831687955       -0.3968494342195521
-       -1.5769940149584076        0.6643490506827279        1.0473744212716927       -0.9828651838991298
+       -1.2104787621690556        0.8348603205364958        0.9338271900787133        0.7759263489545838
+       -2.3511200582444078       -0.4943694763557978        2.1656178112287630        0.9970342621901004
-       -2.3521700472322351       -1.0220133587699334        2.1110822135558771       -0.3970377457969525
-       -2.4483757911871518        0.0076099593964074        2.2490025114989711       -0.3893757401670396
+        2.3992746705449588       -3.0120238966368178       -0.3896231414651045        0.1691966627363242
-        2.0517716241891364       -2.2566408668008582       -0.2138767240533537       -0.6800109224217911
-        0.8001729519030151        0.8204778317743565       -0.4701112908309846       -0.9821368279659007
+        0.6449661522631038        1.0654899726026448       -0.1818818264145440        0.8921713087406896
-        1.5216233860125303        0.8308329745090122        0.6408393529336791       -0.3335771210350215
+        1.3335077870179259       -0.3586848693037660       -0.1137169016614579        0.9988617281482304
+        5.0038488360442095        1.9843967120166539       -0.9974041993862465        0.0655379221577991
+        2.5960540498835436        1.6384875936766354       -0.2775220138260974        0.9908754307264420
-        2.1704437171053339        1.6823783438901159       -0.8469870901165104       -0.6595771554465193
-        2.6857833984682640        1.7208222004635592        0.4158431250442012       -0.5578053818499882
+        1.1142349628938584        4.4630482322682452        0.1162443011103751        0.0943160920587207
