21
s                      x[A]                      y[A]                      z[A]                      q[e]
N       -1.7294025857732807        0.4138282115844322       -1.7560545105439533        0.0707249461841811
O       -1.6596041878726935        0.4022223016324366       -0.1601687959693547       -0.3496602100029151
N       -1.4655619657732619       -0.0138779304554624       -0.4581389300454590        0.9824851761690530
N       -3.1437802236072208        0.0430689432888206        0.1131475328837369        0.1071394941056757
O       -1.5270135940096363       -0.1797688145660951       -0.3913365732769495       -0.8194842575378962
N       -0.6069847350380403        0.1153512342605941        0.5416594951920510        0.3116552922920345
N       -1.0991900629715543       -0.2698316399308502        1.7945761196028420        0.0918298459672651
N       -1.4360082558701077        0.0850532263692744        0.7047242923395446        0.5593901217632046
O       -1.0937449127059087        0.0504270359864368        0.6184088947466987       -0.9963138680841535
N        1.0710468771005812       -0.7322203702585883       -0.0406545237689214        0.9989733053171830
O        1.0891427585125319       -0.8321703498711629       -0.0326362386748990       -0.8354521971080898
N        1.1971684702668548       -1.5910768864540021       -0.1846927948652031        0.2899344186932475
O        1.0509224277053206       -1.2353064844021273       -0.1392719451208941       -0.8678253524624289
N        0.3884641912324339        0.3701201838297476        0.1935975488981584        0.9219570073558310
O        0.6059790802133794        0.2543681572558643        0.2945190969870558       -0.9704818863270434
O        0.5253431199267735        0.3463051485972803       -0.3693075696972778       -0.3320651923316272
N        0.7273482780257960       -0.2778286053689833        0.0029264491232950        0.9769593393400061
O        1.3175503447981898        0.8747504789927704        0.4656679837956410       -0.1970026432733326
O        1.0797589121579960        0.9097608342425930       -0.5099785859133034       -0.1946060569702309
N        2.5189785669228537        0.9297150553530120       -0.3779491854728259        0.1283355164991325
N        0.8344143176335367        2.2188774195188641        0.1491299929451747        0.1235072004109040

        RMSE         1.421560106E+00 kcal/mol

Coordinates in bohr
s                   x[bohr]                   y[bohr]                   z[bohr]                      q[e]
+       -3.2680972477700911        0.7820219828825914       -3.3184620863029677        0.0707249461841811
-       -3.1361973917422508        0.7600899916365943       -0.3026751582264141       -0.3496602100029151
+       -2.7695107351990642       -0.0262254877489742       -0.8657571051962003        0.9824851761690530
+       -5.9408836212482177        0.0813885073287459        0.2138178489214963        0.1071394941056757
-       -2.8856374825292632       -0.3397138254281337       -0.7395189463685932       -0.8194842575378962
+       -1.1470349115554823        0.2179822409860508        1.0235880991667177        0.3116552922920345
+       -2.0771681788409815       -0.5099078994524573        3.3912573773362227        0.0918298459672651
+       -2.7136623174908721        0.1607273039244965        1.3317359064788175        0.5593901217632046
-       -2.0668783361269472        0.0952932873329717        1.1686234446183368       -0.9963138680841535
+        2.0239852652469881       -1.3836959632700585       -0.0768259156841770        0.9989733053171830
-        2.0581815251143381       -1.5725740509829180       -0.0616735528606338       -0.8354521971080898
+        2.2623205348376585       -3.0066995599442263       -0.3490187996405977        0.2899344186932475
-        1.9859555674643101       -2.3343909365221629       -0.2631858332382825       -0.8678253524624289
+        0.7340909309767761        0.6994257809423280        0.3658463459774493        0.9219570073558310
-        1.1451344993601280        0.4806861522509720        0.5565604320226872       -0.9704818863270434
-        0.9927546185551489        0.6544218866848359       -0.6978901627862836       -0.3320651923316272
+        1.3744890432921106       -0.5250199739652808        0.0055301873631137        0.9769593393400061
-        2.4898093081711088        1.6530388334093873        0.8799849547678954       -0.1970026432733326
-        2.0404486255008893        1.7191988163865368       -0.9637198572244089       -0.1946060569702309
+        4.7601796073824367        1.7569068293320576       -0.7142204498835054        0.1283355164991325
+        1.5768145354881609        4.1930706288532473        0.2818148437578382        0.1235072004109040
