25
s                      x[A]                      y[A]                      z[A]                      q[e]
N 0.0653702941748979 -0.0035741469568272 0.2443855220318820 0.1158659338886357
O -0.1738644054985838 0.4400598830072011 0.3070548514904511 -0.2341991647481463
N -0.0838815677788260 -0.0061522141602068 -0.3910042652820123 0.0569852111266852
N -0.5105810871060340 -0.0325443566243787 0.1396230418977321 0.3189271149812888
O -0.2397786568050211 -0.3395387039225055 0.2739763522161612 -0.2877498234141676
N 0.0398295450727360 0.1148469832213286 -0.5524047091952783 0.5692545008206258
O -0.1602595626815700 -0.4970909576558946 0.0424188754751054 -0.2058946535748549
O -0.0730353289711465 0.1671659520674197 -0.2748227184325615 -0.9992971180892700
N -0.1841798974329993 -0.0182173322435909 0.2438924571783647 0.6691943173322236
N 0.0174695157697284 -0.0207941107368867 0.3799640466340216 0.0628076875181509
N 0.0594903294620678 0.0046346345886446 0.2967992824856722 0.7576134719858190
O 0.0359242106617066 -0.0753693170949181 -0.0568127605012675 -0.9235083265987739
N 0.1083568225371126 -0.0099231338760687 -0.4751788371726920 0.9955526175656415
O 0.0693340123620216 0.0517240803423143 0.0967132016367682 -0.9936641819349231
O -0.0430827512049847 0.1161404963772175 -0.1240305954354959 -0.9934394819660318
N -0.0259104014870994 -0.0526840894104172 0.2968682705369790 0.8475065253219278
N -0.0780175873135225 0.0198629999220948 -0.4042222769715813 0.9207393412409772
O 0.1556572457212737 -0.2567497116636300 -0.2265700701794252 -0.6738758902636315
N -0.0645018169904807 0.0228428927256092 0.2205344431936974 0.1207489421105395
N 0.2613488296537529 0.0756594878361556 -0.4891270993442470 0.4308753055723465
O 0.3494928680223059 -0.2119454837840782 -0.1259190512240152 -0.7095764258838037
N 0.4479959727191010 -0.0079055227793102 0.1040816815977354 0.9977500474782615
O 0.3051744917834124 0.1261763710146559 -0.0349097089554379 -0.9963537733476465
O -0.0341341466486269 -0.3707244929617679 -0.1403154662933175 -0.1586318904925156
N -0.0307545437530920 -0.2017089591535964 -0.0950582171843185 0.3123697133706422
