25
s                      x[A]                      y[A]                      z[A]                      q[e]
N -1.7159860398167561 0.8923233583450050 -1.2627131323553824 0.1158659338886357
O -1.8520479450169145 0.0944913884975541 0.2382020288413189 -0.2341991647481463
N -3.3304570836024965 -0.4136333862075436 -0.0734350408540670 0.0569852111266852
N -2.1258803586283674 -0.3909498411260157 0.0055457938265401 0.3189271149812888
O -1.8149739913354863 -0.4975098285443232 -0.2730444023067976 -0.2877498234141676
N -1.4199090451683363 -0.6544590084085388 0.3749179816011323 0.5692545008206258
O -0.7815017438679828 -0.3272183116693635 0.8785730574726595 -0.2058946535748549
O -1.1960556951780699 -0.4710959376874833 0.2811353718926500 -0.9992971180892700
N -0.6948606979993821 -0.2346020230428418 0.3741929548651844 0.6691943173322236
N -1.0569793554638793 -1.5035173361028633 1.4195547760460216 0.0628076875181509
N 0.8057744779705217 1.5993132421338618 0.1023874615329917 0.7576134719858190
O 0.7503985217515184 1.2494613963553720 0.1832247095311193 -0.9235083265987739
N 0.7492921791482466 0.8277182044823186 0.1014242426301171 0.9955526175656415
O 0.7779832083509064 1.4014889108634707 0.0529715426985787 -0.9936641819349231
O 0.4293557544315539 -0.2024267123381430 0.0025930673604484 -0.9934394819660318
N 0.5388108789475071 0.2061908616061979 0.1669212138209786 0.8475065253219278
N 0.3764557032115496 -0.4786134389087126 0.1021905279042301 0.9207393412409772
O 0.6841157362419976 -0.3436909241484732 0.3253945723775488 -0.6738758902636315
N 2.7386543389122200 -0.4018021761812601 -0.4873138960155748 0.1207489421105395
N 1.0275796390630827 -0.8152442618507447 -0.0162410598612346 0.4308753055723465
O 1.2480143737007277 -0.5702801852134922 -0.3535942966063270 -0.7095764258838037
N 1.4693595072156471 -0.4039128452549404 -0.1875709714840557 0.9977500474782615
O 1.4310453953414937 -0.5992933235497520 -0.0532093927476845 -0.9963537733476465
O 1.3494905911097206 -2.0470494611726058 -0.6550198504836470 -0.1586318904925156
N 1.3937602261945046 -2.0139804557380856 -0.4889700649669576 0.3123697133706422
