21
s                      x[A]                      y[A]                      z[A]                      q[e]
N -1.8065863331621910 1.2006748555322213 1.0678523488746494 0.0707249461841811
O -1.5565647106853182 -0.2096620521912712 0.4032445670017082 -0.3496602100029151
N -1.4964436634246994 0.2375317306474881 0.0934362905324267 0.9824851761690530
N -3.0583996389396670 -0.5674962025339790 0.1077377276143267 0.1071394941056757
O -1.5841477032711260 0.2172910178370882 -0.0728675213700061 -0.8194842575378962
N -0.5242004066180970 -0.5566639855910415 -0.3918117008255343 0.3116552922920345
N -0.9282339041411329 -1.6960093609591853 -0.9946912744438471 0.0918298459672651
N -1.3245932481076925 -0.8274631994747859 -0.4205724465719785 0.5593901217632046
O -1.0083654298939058 -0.6689949836691284 -0.3944705584583852 -0.9963138680841535
N 0.8234870652640012 0.8548245049539536 -0.1686052275767056 0.9989733053171830
O 0.8072219695379784 0.9534443113548520 -0.1883873581735612 -0.8354521971080898
N 0.6824188203603839 1.7222627573964904 -0.1245731518389531 0.2899344186932475
O 0.6543982570016497 1.3361004070338531 -0.1137553552047678 -0.8678253524624289
N 0.5103850514016274 -0.4165644039870590 -0.1903050458195746 0.9219570073558310
O 0.6647014048238420 -0.2546608131016856 -0.3347699473628399 -0.9704818863270434
O 0.7005687294638120 -0.2755495510437974 0.3389492875710035 -0.3320651923316272
N 0.6427963493409045 0.3236443287547333 -0.1155132939611428 0.9769593393400061
O 1.5501608801737767 -0.6664846991703484 -0.3296865240990682 -0.1970026432733326
O 1.3124843075841264 -0.5794109702485810 0.6427252878254472 -0.1946060569702309
N 2.6916453766694990 -0.1954030983296001 0.4616853826175490 0.1283355164991325
N 1.4877821309300523 -2.0028500610338869 0.2589307060531011 0.1235072004109040
