21
s                      x[A]                      y[A]                      z[A]                      q[e]
N 0.0271854992095290 -0.0450113964747080 0.3787742744379858 0.0707249461841811
O 0.1028425431680820 0.2924669805347092 0.3134894903488173 -0.3496602100029151
N 0.3753296522103117 -0.1823214549313692 0.3130019283621785 0.9824851761690530
N 0.0337608775098414 -0.0109791242139007 -0.1884843988163362 0.1071394941056757
O 0.2564043591210319 -0.3288551520764963 0.3204922749358089 -0.8194842575378962
N 0.1010439909796234 0.1261144549930387 0.2908898994827828 0.3116552922920345
N 0.0298315024686539 -0.0163997834510746 0.2436611310648965 0.0918298459672651
N 0.0908354826141820 0.0397488135290584 -0.5501123271751642 0.5593901217632046
O 0.0475072471857482 0.0585389251651613 -0.1990102417272908 -0.9963138680841535
N 0.2264985717135571 0.0840251880133313 -0.4261023666163986 0.9989733053171830
O 0.2003322833012081 0.1000716790732909 -0.3292031495528550 -0.8354521971080898
N 0.0346359530581287 0.0063178127730618 0.4290398235202156 0.2899344186932475
O 0.0345632874634496 -0.0023088411775646 0.0414955867698733 -0.8678253524624289
N 0.0013798584462102 0.0783737489900749 -0.3509802915615373 0.9219570073558310
O 0.1204646881577711 0.2420913750424191 -0.1785916136348068 -0.9704818863270434
O 0.2578763909820088 -0.4183825868605954 -0.2001259761196765 -0.3320651923316272
N 0.0925518680870999 0.0128026664045678 0.3962298000719996 0.9769593393400061
O 0.1996483628861495 -0.5145837020886626 -0.0960283877475078 -0.1970026432733326
O 0.2308810217524614 0.4895058782821658 -0.0750826405823676 -0.1946060569702309
N 0.0218156988107682 -0.0000037673840822 0.1847693017159764 0.1283355164991325
N 0.0368583219614532 0.0046669894125888 -0.1491357014871867 0.1235072004109040
