21
s                      x[A]                      y[A]                      z[A]                      q[e]
N 0.2091106462824824 1.4476169462743014 -0.2456945128020359 0.0690680479201058
O -0.5653360588708329 -0.1239476208913012 0.5588958615588829 -0.3117950550350966
N -0.4281461006708856 -0.3423777218853429 0.2756546672882214 0.5776243102962968
N 0.0532033261251696 0.5302268381716844 -0.4011191702576046 0.0604184539076988
O -0.0972317665414198 -0.4206102216207649 0.1779409092832750 -0.3968494342195521
O -0.0739879296515179 -0.3837508183125480 0.1002761843775224 -0.9828651838991298
N 0.0578804688533734 -0.3484797377247124 0.2708352302029337 0.7759263489545838
N -1.2871025262458113 -0.4191308388983728 -0.0809437067666173 0.9970342621901004
O -1.3084844468349548 -0.6894803049174038 -0.0084538732456942 -0.3970377457969525
O -1.2761639156575924 -0.1745503050714176 -0.2049464424447873 -0.3893757401670396
N 0.5599614378038824 0.2836335896742647 0.3691844605753735 0.1691966627363242
O 0.4197898408560621 0.2181583579535893 -0.0592312221435796 -0.6800109224217911
O 0.1713825091109898 -0.4388966042613014 -0.3068130890041955 -0.9821368279659007
N 0.0457618783039856 -0.3696292564006423 -0.4597457174737656 0.8921713087406896
O 0.2099913437863733 0.2537595878905828 -0.4055549628319849 -0.3335771210350215
N 0.2146768643140146 -0.0418628635464959 0.2936431549142468 0.9988617281482304
N -0.6192463171070386 -0.1938184496237478 -0.0873779033218783 0.0655379221577991
N 0.0591487524178196 0.0289759890535187 -0.1436355523576904 0.9908754307264420
O 0.1123159398806022 0.4000317478172409 -0.1828865221286355 -0.6595771554465193
O -0.0060368555778900 -0.3010827565942660 -0.3057037996058892 -0.5578053818499882
N 0.7209182051838359 0.4916738241652629 -0.4779326503457963 0.0943160920587207
