21
s                      x[A]                      y[A]                      z[A]                      q[e]
N       -2.0744036704597208        1.5965282221273860       -0.3751521841512351        0.0690680479201058
O       -1.8664480838874029       -0.1483014394530089        0.4182025138071784       -0.3117950550350966
N       -1.9881034643541848       -0.3126122590591853        0.0971678802693841        0.5776243102962968
N       -3.3233007171384323       -0.5099000186095306        0.1107118582829852        0.0604184539076988
O       -1.8505453667808982       -0.3258417516002235       -0.2298500829555051       -0.3968494342195521
O       -0.9344116273306412       -0.0538041662276977        0.1012085762044378       -0.9828651838991298
N       -0.7614702037459752        0.0845600574274876        0.0921195524275013        0.7759263489545838
N       -1.0945466378012334       -1.2612279573326985        0.0848210353629711        0.9970342621901004
O       -1.1056203097228496       -1.2836531355358669       -0.1975042838064083       -0.3970377457969525
O       -1.1433862425745820       -1.2693815515998446        0.3522940687243249       -0.3893757401670396
N        1.7216281820859523       -1.3287649951188254       -0.0454679595298398        0.1691966627363242
O        1.4160924382058635       -0.9920770834449639       -0.0134906304782686       -0.6800109224217911
O        0.4009573878181504        0.4082802452896980       -0.3524863338223078       -0.9821368279659007
N        0.2568168834116603        0.4978745742017009       -0.2308952047069375        0.8921713087406896
O        0.6018410787001243        0.4971027790158384        0.3133734683820892       -0.3335771210350215
N        0.7836604826213600       -0.1329279142315600       -0.0656580849346752        0.9988617281482304
N        2.3754068710863119        1.5889940235307201       -0.0967363347820879        0.0655379221577991
N        1.1446070686950425        1.0555002115907317       -0.0408340082998524        0.9908754307264420
O        1.0037716916428339        1.0317795737509341       -0.3923734177746571       -0.6595771554465193
O        1.0777432629309267        1.1161596219004708        0.3199795666021050       -0.5578053818499882
N       -0.0362798799216242        2.2840375845463852       -0.1282306731739420        0.0943160920587207

        RMSE         4.817082981E+00 kcal/mol

Coordinates in bohr
s                   x[bohr]                   y[bohr]                   z[bohr]                      q[e]
+       -3.9200548108133453        3.0170010913848602       -0.7089348834131551        0.0690680479201058
-       -3.5270757059327291       -0.2802491045773532        0.7902882160735630       -0.3117950550350966
+       -3.7569710567033190       -0.5907515530825330        0.1836206819004133        0.5776243102962968
+       -6.2801281879292317       -0.9635713865378628        0.2092150909953417        0.0604184539076988
-       -3.4970239259508022       -0.6157516707638824       -0.4343537066996670       -0.3968494342195521
-       -1.7657820640982766       -0.1016751385789561        0.1912564905739156       -0.9828651838991298
+       -1.4389701377764648        0.1597953496909376        0.1740807248877313        0.7759263489545838
+       -2.0683933769850178       -2.3833754211294114        0.1602885265137887        0.9970342621901004
-       -2.0893195841200445       -2.4257528662479859       -0.3732290049988072       -0.3970377457969525
-       -2.1606868540822495       -2.3987834812324205        0.6657393055121923       -0.3893757401670396
+        3.2534057540122907       -2.5110019258698877       -0.0859219909947975        0.1691966627363242
-        2.6760268765408952       -1.8747539830539541       -0.0254935968636818       -0.6800109224217911
-        0.7576996509552852        0.7715378460322727       -0.6661026338908643       -0.9821368279659007
+        0.4853135740416715        0.9408465900701463       -0.4363287005776331        0.8921713087406896
-        1.1373148097933456        0.9393881085439192        0.5921900302269667       -0.3335771210350215
+        1.4809036874984742       -0.2511973523259964       -0.1240757984485848        0.9988617281482304
+        4.4888684228838391        3.0027635194623525       -0.1828051791187463        0.0655379221577991
+        2.1629938810967246        1.9946063252692714       -0.0771650922913928        0.9908754307264420
-        1.8968535896924623        1.9497808162308821       -0.7414782985039485       -0.6595771554465193
-        2.0366396004967373        2.1092359976864512        0.6046737466206710       -0.5578053818499882
+       -0.0685590369163662        4.3162054950448967       -0.2423208531818425        0.0943160920587207
