21
s                      x[A]                      y[A]                      z[A]                      q[e]
N -2.1307264551760867 1.6400519172172368 -0.5228841738308324 0.0707249461841811
O -1.7650111597826110 0.2486098065018963 0.1932844473792550 -0.3496602100029151
N -1.6081066927725183 0.3494040779198232 -0.3209966414517841 0.9824851761690530
N -3.1697691992262178 -0.3922513232606042 0.0522015394776440 0.1071394941056757
O -1.6547967713642486 0.2071496172740746 -0.4359147119753231 -0.8194842575378962
N -0.4964161270601752 -0.6463005291825573 -0.1396741326898203 0.3116552922920345
N -0.9272938006727894 -1.6880695960341334 0.4499417872638550 0.0918298459672651
N -1.2547630429793402 -1.0101551359198429 -0.0539824795875877 0.5593901217632046
O -0.9575171434700414 -0.8170804716850341 -0.0685602350803426 -0.9963138680841535
N 0.7214539384261338 0.8954422842722535 -0.0265716855492749 0.9989733053171830
O 0.6944757494861128 0.9929323440702414 -0.0326141562353055 -0.8354521971080898
N 0.5258375257036799 1.7388932483744832 0.1322382737783897 0.2899344186932475
O 0.5294823613335389 1.3511627551067782 0.1081316456254293 -0.8678253524624289
N 0.5308249347591688 -0.3964292329280339 -0.1083178471708412 0.9219570073558310
O 0.6407777778130797 -0.2091350105924363 -0.2617918760818604 -0.9704818863270434
O 0.7992554791197348 -0.2742904368598580 0.3910126398287124 -0.3320651923316272
N 0.6030008958016422 0.3464845525752007 0.0092304115237498 0.9769593393400061
O 1.5096035546854596 -0.4868557411134792 -0.5832952000139913 -0.1970026432733326
O 1.5418259557719631 -0.5414225109630938 0.4195188148067905 -0.1946060569702309
N 2.7691976987448768 0.0481297001591816 -0.0569759311043634 0.1283355164991325
N 1.7560511137787786 -1.8747113237368915 -0.1972277933761057 0.1235072004109040
