25
s                      x[A]                      y[A]                      z[A]                      q[e]
N -2.0264116350104375 1.4036291479005572 -0.2544521017225898 0.1158659338886357
O -1.8519700936185830 -0.1518994914176746 0.4299866491381687 -0.2341991647481463
N -3.3470191105950002 -0.5623657867191194 0.0295605060008307 0.0569852111266852
N -2.1525633253801857 -0.4258965745464505 -0.0164835170655827 0.3189271149812888
O -1.8948071739836361 -0.2996815593407796 -0.3378273109644669 -0.2877498234141676
N -1.3696773035311023 -0.7654073426434357 0.2011779519175769 0.5692545008206258
O -0.7756990390817727 -0.6801815018856850 -0.4377627095182038 -0.2058946535748549
O -1.0682932987420666 -0.7507555439301060 0.2396555082542235 -0.9992971180892700
N -0.5607179476258941 -0.6268226318622178 0.0327898347961817 0.6691943173322236
N -0.8225786098106407 -2.0187388305889846 0.2479308744769233 0.0628076875181509
N 1.7370629288745567 -1.0851542056407213 -0.0630371374120930 0.7576134719858190
O 1.4627133195430528 -0.8551996861456500 -0.1250910011849392 -0.9235083265987739
N 1.2152398380250633 -0.5144229323186812 -0.0403092798827187 0.9955526175656415
O 1.6022562856827607 -0.9403873392177509 -0.0063055141202219 -0.9936641819349231
O 0.3523155312731627 0.1102905651926583 0.1405419418830768 -0.9934394819660318
N 0.6588692862870110 -0.1654096115895324 -0.0491069272073918 0.8475065253219278
N 0.1221010190136895 0.2815143026166910 0.0588052451838929 0.9207393412409772
O 0.3988177210030329 0.3327922226350906 -0.2301190842546254 -0.6738758902636315
N 2.0823215299722393 1.7272148486703296 -0.0545192973368912 0.1207489421105395
N 0.4298246588697111 0.9606916363976631 -0.0330425247271474 0.4308753055723465
O 0.8204770289315373 0.9571826536242125 0.2311250172322576 -0.7095764258838037
N 1.0548528441319147 0.9273886239069071 0.0110891168372539 0.9977500474782615
O 0.8765438704426340 1.0350527259336528 -0.1085306446764452 -0.9963537733476465
O 0.0575829951032661 2.2372194816262625 0.4827643440937217 -0.1586318904925156
N 0.0755198955316496 2.2078710840597338 0.3111752123154954 0.3123697133706422
