21
s                      x[A]                      y[A]                      z[A]                      q[e]
N -2.1650679423491961 1.5254893267385601 -0.2549894877213117 0.0690680479201058
O -1.8716009183136544 -0.2750053931304944 0.3386887378161989 -0.3117950550350966
N -1.9682091747127386 -0.4269887607025908 -0.0024221739770929 0.5776243102962968
N -3.3011397368393602 -0.6713600210550519 -0.0278703930670986 0.0604184539076988
O -1.8304559101169859 -0.3700611522822429 -0.3254720572570113 -0.3968494342195521
O -0.9213642056745034 -0.1875543502845259 0.1406504564645416 -0.9828651838991298
N -0.7442549407573121 -0.0834448890992525 0.1317005208756135 0.7759263489545838
N -0.9437788232628828 -1.4220632886451876 0.1472859428064796 0.9970342621901004
O -0.9678232686173038 -1.4262898004617761 -0.1369595811877128 -0.3970377457969525
O -1.0322113147531096 -1.3768773012406870 0.4099666582447525 -0.3893757401670396
N 1.8582098621356171 -1.1946501957280473 -0.1555447706782195 0.1691966627363242
O 1.4967885556034228 -0.8540468811769309 -0.0917773928842400 -0.6800109224217911
O 0.3366688224627357 0.4535126544554440 -0.3136307434630018 -0.9821368279659007
N 0.2107420522384466 0.4476328259605694 -0.1898668385501580 0.8921713087406896
O 0.5525797077642207 0.5058565598160655 0.3485331430349699 -0.3335771210350215
N 0.8116383905007979 -0.1375846048322894 -0.0683650365574794 0.9988617281482304
N 2.2005580109259628 1.7695229125217002 -0.0176384761487805 0.0655379221577991
N 1.0386893755307969 1.0692923621221424 0.0260166705107120 0.9908754307264420
O 0.8829476312098338 1.1345681851483376 -0.3183823444359054 -0.6595771554465193
O 0.9671102771295923 1.1773266445125188 0.3909049703359180 -0.5578053818499882
N -0.2630780266159837 2.2197669975457575 0.0417631492181591 0.0943160920587207
