25
s                      x[A]                      y[A]                      z[A]                      q[e]
N        1.7724645775727996        1.0824047341424952       -1.0058599660762977        0.1158659338886357
O        1.7136276438481388       -0.5058088245866750       -0.4258922123231648       -0.2341991647481463
N        3.3085399126836310       -0.5252438341574561       -0.1188500414701047        0.0569852111266852
N        2.1176589614314558       -0.4219824234125449        0.0151272098478452        0.3189271149812888
O        1.9034835932322558       -0.1116420352417707        0.2235691745531520       -0.2877498234141676
N        1.3438558528190645       -0.7802695868145388        0.5057018934176246        0.5692545008206258
O        0.9479780735895130       -0.3834017182721596       -0.1681641691185471       -0.2058946535748549
O        1.1111805709169844       -0.5854046687695207        0.5261320866851643       -0.9992971180892700
N        0.6903414602525382       -0.3083133581905378        0.2773342588281639        0.6691943173322236
N        0.9775454679137748       -1.7757136604008172        1.1321009178559753        0.0628076875181509
N       -0.7109912428368129        1.6129311898444794        0.1239087836069958        0.7576134719858190
O       -0.6473088767219352        1.2642876654349147        0.0439730574328714       -0.9235083265987739
N       -0.6962884578547158        0.8401034029595766        0.0911808149602076        0.9955526175656415
O       -0.7125410026178012        1.4115146649559427        0.1660719842723134       -0.9936641819349231
O       -0.4841766286045970       -0.2115842712824164        0.2256180583843805       -0.9934394819660318
N       -0.5070284530224799        0.2110817422204999        0.0619607307499523        0.8475065253219278
N       -0.4124538813417366       -0.4857627661776204        0.1324559525597250        0.9207393412409772
O       -0.6120511461977090       -0.3190336803157652       -0.1758315271932732       -0.6738758902636315
N       -2.7633282131622159       -0.2612171593521617       -0.4822945397896546        0.1207489421105395
N       -1.0437293596865806       -0.7708897565618562       -0.1612289932425423        0.4308753055723465
O       -1.3909339351294097       -0.5480186597657006        0.0672081631579522       -0.7095764258838037
N       -1.5034591154787771       -0.3438769614340981       -0.1561743679627884        0.9977500474782615
O       -1.4112721728399999       -0.5248633688680538       -0.2843930258835810       -0.9963537733476465
O       -1.6613229134518428       -2.0345847132597603        0.0674325576346113       -0.1586318904925156
N       -1.6211164627457872       -1.9784123776462845       -0.0933592363551790        0.3123697133706422

        RMSE         6.286353412E-01 kcal/mol

Coordinates in bohr
s                   x[bohr]                   y[bohr]                   z[bohr]                      q[e]
+        3.3494726186878929        2.0454485044283079       -1.9007998564465045        0.1158659338886357
-        3.2382869278865702       -0.9558401503085555       -0.8048196402561170       -0.2341991647481463
+        6.2522343101182187       -0.9925669956429836       -0.2245940283778032        0.0569852111266852
+        4.0017954642269133       -0.7974312100066931        0.0285862836547560        0.3189271149812888
-        3.5970626755113355       -0.2109728706956576        0.4224845100001328       -0.2877498234141676
+        2.5395195139215962       -1.4744958231036189        0.9556380796847753        0.5692545008206258
-        1.7914189320232863       -0.7245242435643219       -0.3177842237492269       -0.2058946535748549
-        2.0998269549629702       -1.1062544965387495        0.9942455496505977       -0.9992971180892700
+        1.3045562929259282       -0.5826278078002965        0.5240857943920647        0.6691943173322236
+        1.8472932095395573       -3.3556124953917741        2.1393606811272234        0.0628076875181509
+       -1.3435787265604564        3.0479982080148926        0.2341536655558406        0.7576134719858190
-       -1.2232364955822015        2.3891574314664443        0.0830970354471546       -0.9235083265987739
+       -1.3157944896627984        1.5875653486587373        0.1723067681708403        0.9955526175656415
-       -1.3465073481067735        2.6673761388340980        0.3138305673860122       -0.9936641819349231
-       -0.9149612244101989       -0.3998363251783387        0.4263563393040334       -0.9934394819660318
+       -0.9581449140270474        0.3988866828812334        0.1170888116506431        0.8475065253219278
+       -0.7794248751179627       -0.9179585900205115        0.2503054740245150        0.9207393412409772
-       -1.1566090410862193       -0.6028862805936623       -0.3322734306162769       -0.6738758902636315
+       -5.2219335176273374       -0.4936288904456607       -0.9114045920061703        0.1207489421105395
+       -1.9723626389071018       -1.4567705128227648       -0.3046786407116958        0.4308753055723465
-       -2.6284841959999095       -1.0356051785976292        0.1270050217636146       -0.7095764258838037
+       -2.8411259690779627       -0.6498332779650693       -0.2951267832661453        0.9977500474782615
-       -2.6669178951473835       -0.9918480204457703       -0.5374249309102074       -0.9963537733476465
-       -3.1394453123716617       -3.8448078871040932        0.1274290658685657       -0.1586318904925156
+       -3.0634661320604963       -3.7386575569673228       -0.1764233879931740        0.3123697133706422
