21
s                      x[A]                      y[A]                      z[A]                      q[e]
N -2.0622818853027667 1.5569051574983344 -0.2301618093020004 0.0707249461841811
O -1.7048413311757167 0.0900414593018848 0.2604838133596063 -0.3496602100029151
N -1.5553078497179187 0.2378595841366427 -0.2474183112756922 0.9824851761690530
N -3.1109485213357324 -0.5469351084613647 0.0407855500985873 0.1071394941056757
O -1.6078161593115197 0.1384678241354304 -0.3682505097949164 -0.8194842575378962
N -0.6263828858112247 -0.3538323746129189 0.1910178880589933 0.3116552922920345
N -0.8294486051244103 -1.8771393334070388 0.2244617524907166 0.0918298459672651
N -1.3926529495231779 -0.7043444887084012 0.1337861731335874 0.5593901217632046
O -1.0571145508805386 -0.5764379532869565 0.1230269144309255 -0.9963138680841535
N 1.3077481116859124 -0.4734331770625758 0.0530493693561556 0.9989733053171830
O 1.3612986063936290 -0.5455376837742059 0.0576274378187106 -0.8354521971080898
N 1.7733866287652171 -1.2078043307413642 -0.0637344490175096 0.2899344186932475
O 1.5016672453612041 -0.9218938294747112 -0.0594039644993719 -0.8678253524624289
N 0.2378286172183974 0.2798537297692491 0.1166207672952456 0.9219570073558310
O 0.4493917371556783 0.2567616872408033 0.2580248047062770 -0.9704818863270434
O 0.4994307537807351 0.3818210240968698 -0.4004921567917544 -0.3320651923316272
N 0.8245231307715074 -0.1807215249193658 0.0126042991506785 0.9769593393400061
O 0.8516866489931976 1.0875750352459117 0.5369348179159726 -0.1970026432733326
O 0.8170500745883247 1.0978234970690661 -0.4676878094668404 -0.1946060569702309
N 2.1002082561765532 1.6054206191670599 -0.0336657994015444 0.1283355164991325
N 0.0078596894547465 2.1971139750291275 0.1111311601965900 0.1235072004109040
