21
s                      x[A]                      y[A]                      z[A]                      q[e]
N       -2.0620890439858064        1.5567564713924238       -0.2301041241703756        0.0707249461841811
O       -1.7053128648742324        0.0905788257333331        0.2604115995672247       -0.3496602100029151
N       -1.5545366700463903        0.2372301353485913       -0.2472114219593310        0.9824851761690530
N       -3.1106926166134374       -0.5472309209331704        0.0408864403593783        0.1071394941056757
O       -1.6084372308785109        0.1390490035930986       -0.3683150080924634       -0.8194842575378962
N       -0.6260520048862754       -0.3543846409483823        0.1909011607700426        0.3116552922920345
N       -0.8293959977145288       -1.8775471472596375        0.2244488402375149        0.0918298459672651
N       -1.3921645102275282       -0.7051229836608305        0.1338107980532229        0.5593901217632046
O       -1.0575376028592616       -0.5755846171235915        0.1230221720057766       -0.9963138680841535
N        1.3076145356085953       -0.4734654222965116        0.0525159084167880        0.9989733053171830
O        1.3611414579891821       -0.5453148826611722        0.0581009489402876       -0.8354521971080898
N        1.7731541476809018       -1.2077829959903337       -0.0641329926718490        0.2899344186932475
O        1.5016156311711697       -0.9216286002786015       -0.0589184993748422       -0.8678253524624289
N        0.2381990533380475        0.2795411661024096        0.1162946212425531        0.9219570073558310
O        0.4489986265437448        0.2570295263836873        0.2583039386162501       -0.9704818863270434
O        0.4989832360888926        0.3820192866411780       -0.4001677864950545       -0.3320651923316272
N        0.8246273743480075       -0.1809115298971645        0.0121786572201048        0.9769593393400061
O        0.8514318351009686        1.0875549181327411        0.5371512314320285       -0.1970026432733326
O        0.8166562936291117        1.0978734230716538       -0.4674163817485301       -0.1946060569702309
N        2.1003564410996090        1.6054647082865279       -0.0338943834401648        0.1283355164991325
N        0.0082177596236751        2.1970856121805085        0.1110789743814907        0.1235072004109040

        RMSE         6.378126311E-01 kcal/mol

Coordinates in bohr
s                   x[bohr]                   y[bohr]                   z[bohr]                      q[e]
+       -3.8967835394403347        2.9418433749658055       -0.4348337750203508        0.0707249461841811
-       -3.2225742728321722        0.1711691734015714        0.4921066030744470       -0.3496602100029151
+       -2.9376485583688794        0.4482999845141296       -0.4671618825881269        0.9824851761690530
+       -5.8783571058831843       -1.0341165679457591        0.0772641745240905        0.1071394941056757
-       -3.0395058563501665        0.2627645348087578       -0.6960144931905394       -0.8194842575378962
+       -1.1830668295288467       -0.6696899144611501        0.3607509108873745        0.3116552922920345
+       -1.5673312852313062       -3.5480498959553528        0.4241468372255422        0.0918298459672651
+       -2.6308096459121617       -1.3324893238846447        0.2528657609495367        0.5593901217632046
-       -1.9984564367771918       -1.0876972883900922        0.2324782124498826       -0.9963138680841535
+        2.4710333499679682       -0.8947199780146413        0.0992406841373550        0.9989733053171830
-        2.5721845736059161       -1.0304957803657873        0.1097948811263529       -0.8354521971080898
+        3.3507757173365085       -2.2823790814066607       -0.1211937917557885        0.2899344186932475
-        2.8376422886200054       -1.7416256439156030       -0.1113398275414100       -0.8678253524624289
+        0.4501309741522311        0.5282562447246697        0.2197649840122756        0.9219570073558310
-        0.8484844348743973        0.4857154110213060        0.4881237011117829       -0.9704818863270434
-        0.9429416574026717        0.7219118263945967       -0.7562075207063347       -0.3320651923316272
+        1.5583198930731221       -0.3418732444432167        0.0230143267218276        0.9769593393400061
-        1.6089729828368020        2.0551809416655904        1.0150687153589484       -0.1970026432733326
-        1.5432567335904919        2.0746800900243194       -0.8832889480571668       -0.1946060569702309
+        3.9690984395195574        3.0338886027495828       -0.0640511018931645        0.1283355164991325
+        0.0155293150535913        4.1518900812050124        0.2099088398777637        0.1235072004109040
