21
s                      x[A]                      y[A]                      z[A]                      q[e]
N       -2.0115800048774051        1.3790378920902548        0.0708821795131774        0.0707249461841811
O       -1.6105182745502049       -0.1243904107735572        0.3241484762029621       -0.3496602100029151
N       -1.4838324143510586        0.0907613623924768       -0.1507653212324733        0.9824851761690530
N       -3.0083699031632447       -0.7682487658332569        0.1174728129541094        0.1071394941056757
O       -1.5685798900830754        0.0111323636189883       -0.2967451428494681       -0.8194842575378962
N       -0.4627755638369118       -0.6555367188255472       -0.1467654589808783        0.3116552922920345
N       -0.6671236410437479       -2.0237381963322609       -0.0076554014417146        0.0918298459672651
N       -1.2039374373648721       -1.0361267820303068       -0.0152826052004957        0.5593901217632046
O       -0.9271773946481048       -0.8293966015007395       -0.0458918939890887       -0.9963138680841535
N        0.7085497275705233        0.9283169460960571       -0.1387421915736773        0.9989733053171830
O        0.6383381701482769        1.0029042351077677       -0.1685717755019974       -0.8354521971080898
N        0.4662124513317584        1.7650841372331443       -0.0604513416730869        0.2899344186932475
O        0.4454158389340405        1.3629943233182362       -0.0639889647867358       -0.8678253524624289
N        0.5543264225845228       -0.3697466215044427       -0.1343681876579293        0.9219570073558310
O        0.6403470550150818       -0.2013239263495683       -0.2979269198681608       -0.9704818863270434
O        0.8062379337599308       -0.2123743427926228        0.3537842527686873       -0.3320651923316272
N        0.6069964503396329        0.3823452124935628       -0.0667050673304071        0.9769593393400061
O        1.5224639414555015       -0.4829263863052723       -0.5993672519476047       -0.1970026432733326
O        1.5098280750551112       -0.5421912725218585        0.4657207127253538       -0.1946060569702309
N        2.7671322374120009        0.0661104014359837        0.0846541778572399        0.1283355164991325
N        1.7635281226139574       -1.8477800346062350       -0.1742459397108111        0.1235072004109040

        RMSE         3.548175980E+00 kcal/mol

Coordinates in bohr
s                   x[bohr]                   y[bohr]                   z[bohr]                      q[e]
+       -3.8013352886654177        2.6060039326792479        0.1339479064554429        0.0707249461841811
-       -3.0434384589447854       -0.2350638089952219        0.6125518440080825       -0.3496602100029151
+       -2.8040368792003605        0.1715141176952091       -0.2849051663460466        0.9824851761690530
+       -5.6849952010486202       -1.4517797636458387        0.2219914436704013        0.1071394941056757
-       -2.9641863981577559        0.0210371183688984       -0.5607670490453551       -0.8194842575378962
+       -0.8745190732060891       -1.2387848637615391       -0.2773465221509749        0.3116552922920345
+       -1.2606809733909206       -3.8243109406959768       -0.0144666121052757        0.0918298459672651
+       -2.2751120288051463       -1.9579958492892195       -0.0288799383124344        0.5593901217632046
-       -1.7521113456004467       -1.5673324262218826       -0.0867231110179221       -0.9963138680841535
+        1.3389649313760446        1.7542647857429454       -0.2621847441200529        0.9989733053171830
-        1.2062843170061430        1.8952143344154486       -0.3185544881809363       -0.8354521971080898
+        0.8810138492953601        3.3355256077606632       -0.1142364796786099        0.2899344186932475
-        0.8417139475263724        2.5756859816251847       -0.1209216184984957       -0.8678253524624289
+        1.0475251227895490       -0.6987198504567126       -0.2539190746476092        0.9219570073558310
-        1.2100805592219812       -0.3804470833025268       -0.5630002839520444       -0.9704818863270434
-        1.5235688867612791       -0.4013293439521556        0.6685553452325643       -0.3320651923316272
+        1.1470570502669695        0.7225277369928105       -0.1260543084346937        0.9769593393400061
-        2.8770398852359587       -0.9125986088740127       -1.1326399547492529       -0.1970026432733326
-        2.8531615583813461       -1.0245930126797811        0.8800845980039410       -0.1946060569702309
+        5.2291220816340314        0.1249305527580831        0.1599732115259799        0.1283355164991325
+        3.3325851662831916       -3.4917982054947720       -0.3292771045264694        0.1235072004109040
