25
s                      x[A]                      y[A]                      z[A]                      q[e]
N -1.9172329580281928 1.2961773836243802 0.0117039335786048 0.1158659338886357
O -1.7894919297082856 -0.3261064842397965 0.4571203342550350 -0.2341991647481463
N -3.2820127524539542 -0.6830162435628617 0.0078821539107642 0.0569852111266852
N -2.0643010986330204 -0.5651848321065484 -0.0351248834662584 0.3189271149812888
O -1.8594730047784964 -0.3519052911077011 -0.3442230305171110 -0.2877498234141676
N -1.2878994670990207 -0.9342698765342953 -0.1148070981838072 0.5692545008206258
O -0.8183086352676432 -0.5440009774164840 0.4800689474326907 -0.2058946535748549
O -1.0468754976546693 -0.7702191433181780 -0.1586133721386000 -0.9992971180892700
N -0.6569546129938093 -0.4259602202763630 0.0216680772867395 0.6691943173322236
N -0.7524209143194036 -2.2071939140699284 -0.0348807815240989 0.0628076875181509
N 0.5321618209200956 1.5973355025049267 -0.0078906740190056 0.7576134719858190
O 0.5046801031842788 1.2527974913770619 0.0732316435114605 -0.9235083265987739
N 0.5939396534440124 0.8284805002439023 0.0069754638685366 0.9955526175656415
O 0.5311267815546389 1.3967531798636303 -0.0443880556758593 -0.9936641819349231
O 0.4767437018278837 -0.2000549620708628 -0.1108778623585643 -0.9934394819660318
N 0.4799293456584328 0.2017081489601403 0.0517647067031558 0.8475065253219278
N 0.4499573834237388 -0.4755662061533646 -0.0148287821219155 0.9207393412409772
O 0.6809003666889024 -0.2946836357512789 0.2396157904806807 -0.6738758902636315
N 2.8466787140146943 -0.0270758958006191 0.0188687369617339 0.1207489421105395
N 1.1583058594160427 -0.7019725777784027 0.0777216530478692 0.4308753055723465
O 1.4144695266958465 -0.4351634702920848 -0.2024473766987933 -0.7095764258838037
N 1.5428369871883696 -0.2400819037603514 -0.0083264487016100 0.9977500474782615
O 1.5108886103834718 -0.4222247045008484 0.1182173816168725 -0.9963537733476465
O 1.8254470246892724 -1.8782715346756023 -0.3639791036739154 -0.1586318904925156
N 1.8311337843129434 -1.8216091007263364 -0.1970667693360708 0.3123697133706422
