21
s                      x[A]                      y[A]                      z[A]                      q[e]
N 0.0470600958869749 -0.7271763909325663 0.0280756742937874 0.0707249461841811
O -0.0995997697367598 0.2985040568926888 0.5209895118582353 -0.3496602100029151
N 0.2982944186748484 -0.0579013368226632 0.4020460195288622 0.9824851761690530
N 0.2307274780273971 0.1568059587990415 -0.2131169067889554 0.1071394941056757
O 0.2279046170351888 -0.2308580515621129 0.3723377778053772 -0.8194842575378962
N -0.3031280770248002 -0.2571328807142171 0.3343256655835724 0.3116552922920345
N 0.1245247185712177 -0.7730412331912937 0.2231117675008082 0.0918298459672651
N -0.3462688234052377 -0.2553316581420779 -0.5099880693040837 0.5593901217632046
O -0.2791173717853171 -0.2439524032350856 -0.1619118378081220 -0.9963138680841535
N 0.3870230074450038 0.1494874654538035 -0.2389063017221620 0.9989733053171830
O 0.2893831916833819 0.1783429833806472 -0.2421912987245990 -0.8354521971080898
N -0.0082491225583324 0.1862868698922600 0.5229317265325755 0.2899344186932475
O -0.1153980015452165 0.1396197727196095 -0.3419318357087576 -0.8678253524624289
N -0.2614537887550183 -0.0865806868714150 0.3713487843327389 0.9219570073558310
O -0.0471465505523385 -0.2419132248501306 0.3431107138526479 -0.9704818863270434
O -0.0005198325479523 0.4310388643047778 0.3636764789585920 -0.3320651923316272
N 0.3018131966773496 -0.0513570623610730 -0.1310741935389773 0.9769593393400061
O 0.3834578826617213 -0.3781104669115707 -0.1687514520360278 -0.1970026432733326
O 0.3482703749644616 0.6137468202123104 -0.3253614285983211 -0.1946060569702309
N 1.6431880552155151 0.2699294302149314 0.2095882589725958 0.1283355164991325
N -0.4313018383071356 0.2331042750718204 0.8791757365785505 0.1235072004109040
