21
s                      x[A]                      y[A]                      z[A]                      q[e]
N 0.0278862746510318 -0.0475896555697572 0.3744499016648632 0.0707249461841811
O 0.1109799526827590 0.2810916180544721 0.3055770053380708 -0.3496602100029151
N 0.3664602573222352 -0.1691131303766642 0.3242303292583362 0.9824851761690530
N 0.0385452256971190 -0.0154341394227860 -0.1883666099513600 0.1071394941056757
O 0.2648589927009279 -0.3382871453998085 0.3133213989413414 -0.8194842575378962
N 0.0871602138568921 0.1243315004211590 0.2884234474057778 0.3116552922920345
N 0.0294179127680328 -0.0108149034340993 0.2482404262471902 0.0918298459672651
N 0.0725842687356556 0.0370385752524874 -0.5515235404019144 0.5593901217632046
O 0.0656725754630026 0.0615282802535223 -0.1943550658103846 -0.9963138680841535
N 0.2174978438114083 0.0846159980827025 -0.4241907516711200 0.9989733053171830
O 0.2057319367168084 0.0980803753470411 -0.3362740322539669 -0.8354521971080898
N 0.0283754979553084 0.0080809794182384 0.4277247386776557 0.2899344186932475
O 0.0413842938840433 -0.0037170676270044 0.0351827345942916 -0.8678253524624289
N -0.0054534492480715 0.0770684324376664 -0.3401411318136228 0.9219570073558310
O 0.1248695156043020 0.2413116294648789 -0.1889273102355178 -0.9704818863270434
O 0.2622675175471123 -0.4178371851556036 -0.2068092240492661 -0.3320651923316272
N 0.0839798310617102 0.0132758051614244 0.4021921628675045 0.9769593393400061
O 0.1950246501355807 -0.5137768387486747 -0.0985867461561911 -0.1970026432733326
O 0.2266619658791202 0.4899479543231858 -0.0763556020776458 -0.1946060569702309
N 0.0232248363663673 -0.0012434828123018 0.1853037228581700 0.1283355164991325
N 0.0354505065717188 0.0048470123421893 -0.1444318764549631 0.1235072004109040
