21
s                      x[A]                      y[A]                      z[A]                      q[e]
N       -1.9421891736082599        1.4465208775334342       -0.1641897262477598        0.0707249461841811
O       -1.6313585025569362       -0.0447520166881041        0.2830973428902291       -0.3496602100029151
N       -1.4842683714577931        0.1396961075029420       -0.2112380979041243        0.9824851761690530
N       -3.0479634651266121       -0.6417757694478748        0.0474837615244377        0.1071394941056757
O       -1.5299050686371973        0.0076624395031611       -0.3466762102189448       -0.8194842575378962
N       -0.5087809122048118       -0.6241913063480581       -0.0785150072134445        0.3116552922920345
N       -0.7504541505742723       -1.9944060644811297        0.2316829307805601        0.0918298459672651
N       -1.2760927038081002       -0.9590494883545878        0.0401807918321764        0.5593901217632046
O       -0.9707165626248782       -0.7823909164588480        0.0069893970278375       -0.9963138680841535
N        0.7342476234681787        0.8855901946412414       -0.0690275514875434        0.9989733053171830
O        0.7118848612907986        0.9725055359516209       -0.0833595211358316       -0.8354521971080898
N        0.5410687447499940        1.7335999027914013        0.0271476681870541        0.2899344186932475
O        0.5474049647121823        1.3404322752588091        0.0300187494369078       -0.8678253524624289
N        0.5133697124237867       -0.4019071186997786       -0.0733024584133034        0.9219570073558310
O        0.6308068100822360       -0.2388747227896722       -0.2426846493086850       -0.9704818863270434
O        0.7940620072563439       -0.2574769114089545        0.4115887310014885       -0.3320651923316272
N        0.6044392783888416        0.3457958433032681       -0.0104268885847938        0.9769593393400061
O        1.4817892789000164       -0.5690371027039079       -0.5511940139010577       -0.1970026432733326
O        1.5261514877772933       -0.5334843317751745        0.4517250811483621       -0.1946060569702309
N        2.7660882347158062       -0.0378301760918093       -0.0892251743290119        0.1283355164991325
N        1.6748412759138598       -1.9231724661922118       -0.0422857250461870        0.1235072004109040

        RMSE         7.551293486E+00 kcal/mol

Coordinates in bohr
s                   x[bohr]                   y[bohr]                   z[bohr]                      q[e]
+       -3.6702056219488783        2.7335282932951142       -0.3102736152221606        0.0707249461841811
-       -3.0828207822696032       -0.0845690551024350        0.5349764449073590       -0.3496602100029151
+       -2.8048607187345360        0.2639873839730748       -0.3991821523014423        0.9824851761690530
+       -5.7598161894907287       -1.2127804382114489        0.0897313046877391        0.1071394941056757
-       -2.8911015776740636        0.0144799121138636       -0.6551230915254501       -0.8194842575378962
+       -0.9614565819276985       -1.1795506188895761       -0.1483718603717560        0.3116552922920345
+       -1.4181528142984652       -3.7688812448215208        0.4378172871186621        0.0918298459672651
+       -2.4114657208922852       -1.8123408737506277        0.0759306920668463        0.5593901217632046
-       -1.8343884488068523       -1.4785045551531781        0.0132080461647019       -0.9963138680841535
+        1.3875269166231397        1.6735229272628371       -0.1304431674223962        0.9989733053171830
-        1.3452674206991444        1.8377691184401452       -0.1575266648960351       -0.8354521971080898
+        1.0224717426227368        3.2760290273960622        0.0513016578183366        0.2899344186932475
-        1.0344454630219313        2.5330498899634506        0.0567272150644972       -0.8678253524624289
+        0.9701281575860019       -0.7594943822144520       -0.1385215707239055        0.9219570073558310
-        1.1920521091291161       -0.4514078043671401       -0.4586075220461930       -0.9704818863270434
-        1.5005597203457965       -0.4865608461916919        0.7777899779175471       -0.3320651923316272
+        1.1422246956242712        0.6534594391649070       -0.0197039637659228        0.9769593393400061
-        2.8001759127606771       -1.0753242793344042       -1.0416057282647941       -0.1970026432733326
-        2.8840083378590844       -1.0081392792779591        0.8536366873706174       -0.1946060569702309
+        5.2271492024639841       -0.0714886720913622       -0.1686111429780630        0.1283355164991325
+        3.1649913150895435       -3.6342692531245846       -0.0799084393537060        0.1235072004109040
