21
s                      x[A]                      y[A]                      z[A]                      q[e]
N       -1.9701848339341532        1.4382289068534293        0.0755573003554521        0.0707249461841811
O       -1.6152198150715251       -0.0826267198305226        0.3331705452492519       -0.3496602100029151
N       -1.5029822792851129        0.1461634636902452       -0.1511422113872015        0.9824851761690530
N       -3.0426421110828805       -0.6703425485228899        0.1269961532694197        0.1071394941056757
O       -1.5612268208913205        0.0363163257755932       -0.2934631393398412       -0.8194842575378962
N       -0.4941256902394594       -0.6545572354909202       -0.1273931428556943        0.3116552922920345
N       -0.7474226404429282       -2.0142752342094457        0.0175710943049167        0.0918298459672651
N       -1.2528590930022470       -1.0047306700630896       -0.0000565371379406        0.5593901217632046
O       -0.9554232463351023       -0.8148640171771462       -0.0357789143721277       -0.9963138680841535
N        0.7397653576310341        0.8984999645908042        0.0550621443213261        0.9989733053171830
O        0.7129469562679407        0.9967800401724691        0.0531773800207524       -0.8354521971080898
N        0.5049581852139283        1.7321528512871900       -0.1229922122730973        0.2899344186932475
O        0.5165640320938656        1.3455576908310538       -0.1021829892541801       -0.8678253524624289
N        0.5220608594291144       -0.4167188123060609       -0.1305506294553965        0.9219570073558310
O        0.6306022510289828       -0.2443318460674117       -0.3020088390389928       -0.9704818863270434
O        0.7985019699523570       -0.2519385773891948        0.3517282900071843       -0.3320651923316272
N        0.6013723620960897        0.3331742623861970       -0.0815038347739274        0.9769593393400061
O        1.5342200510600108       -0.4766695072205376       -0.5577314680956417       -0.1970026432733326
O        1.5353340507502247       -0.5161713903349543        0.3936459832250255       -0.1946060569702309
N        2.7776718282436388       -0.0037469037302700        0.0493348822069078        0.1283355164991325
N        1.7222379839736097       -1.8815789482006737       -0.2144649860884737        0.1235072004109040

        RMSE         8.370821072E+00 kcal/mol

Coordinates in bohr
s                   x[bohr]                   y[bohr]                   z[bohr]                      q[e]
+       -3.7231097526661618        2.7178587396695786        0.1427826044507619        0.0707249461841811
-       -3.0523230828978227       -0.1561418711246230        0.6296010835905408       -0.3496602100029151
+       -2.8402248792652318        0.2762089159228630       -0.2856173855178643        0.9824851761690530
+       -5.7497602877314788       -1.2667638269496868        0.2399879486658690        0.1071394941056757
-       -2.9502911112037977        0.0686279095987760       -0.5545649612693688       -0.8194842575378962
+       -0.9337622261053886       -1.2369339085146438       -0.2407381502585868        0.3116552922920345
+       -1.4124240904036740       -3.8064285339482749        0.0332045559608843        0.0918298459672651
+       -2.3675605595637448       -1.8986657962669697       -0.0001068397066250        0.5593901217632046
-       -1.8054882694691730       -1.5398698219551696       -0.0676123492295283       -0.9963138680841535
+        1.3979539230240188        1.6979188568101762        0.1040523726477393        0.9989733053171830
-        1.3472744893251671        1.8836412832488183        0.1004906843086150       -0.8354521971080898
+        0.9542326748625332        3.2732944963636710       -0.2324215967603269        0.2899344186932475
-        0.9761645469196139        2.5427355216741496       -0.1930978643710006       -0.8678253524624289
+        0.9865520451421642       -0.7874844265845203       -0.2467049351768270        0.9219570073558310
-        1.1916655485419845       -0.4617202727949284       -0.5707139932511727       -0.9704818863270434
-        1.5089500338485107       -0.4760949117030402        0.6646701386891838       -0.3320651923316272
+        1.1364290637812657        0.6296081079613379       -0.1540199258972888        0.9769593393400061
-        2.8992557126893455       -0.9007748210037587       -1.0539597262502833       -0.1970026432733326
-        2.9013608670076945       -0.9754225615298534        0.7438830986818646       -0.1946060569702309
+        5.2490390217802139       -0.0070806218686666        0.0932294158027782        0.1283355164991325
+        3.2545581125707508       -3.5556688955262747       -0.4052800872073384        0.1235072004109040
