25
s                      x[A]                      y[A]                      z[A]                      q[e]
N 1.8022383226906142 0.9994428908844897 -1.2513955273907784 0.1158659338886357
O 1.7786204111898036 -0.3925700232421582 -0.3166336591908235 -0.2341991647481463
N 3.3750913810245526 -0.2735371328619058 0.0255044616463713 0.0569852111266852
N 2.1738138814224492 -0.2272436694662350 0.0828474583896220 0.3189271149812888
O 1.9312772141183698 0.1377601903297253 0.2514794842844318 -0.2877498234141676
N 1.4547145208412371 -0.4763839939019878 0.4086704569517574 0.5692545008206258
O 0.7005779306159690 -0.5073946243063077 0.8240996640914291 -0.2058946535748549
O 1.1811151074893695 -0.4613230755780744 0.2646900016969285 -0.9992971180892700
N 0.6272483587534776 -0.4675702882761116 0.3331808753113268 0.6691943173322236
N 1.0245071327881805 -1.3691567016252990 1.4403267083713087 0.0628076875181509
N -1.4935516619323823 -1.2555914547614417 -0.2777567689805207 0.7576134719858190
O -1.2979664092560550 -1.0046529889868276 -0.1302620554524155 -0.9235083265987739
N -1.0876883387788625 -0.6206990271854034 -0.1246689256381543 0.9955526175656415
O -1.3801223290578142 -1.0974233827706330 -0.2842940314339296 -0.9936641819349231
O -0.3353038530763713 0.1367416997887823 -0.0183254781403069 -0.9934394819660318
N -0.6267147959563090 -0.1994404348491993 0.0611848265291162 0.8475065253219278
N -0.1729980549585292 0.3194780242946489 0.1352111598271522 0.9207393412409772
O -0.5213890538158855 0.3174375500487491 0.3220142713545992 -0.6738758902636315
N -2.2959017953541294 1.4782794181940957 -0.1680388542389523 0.1207489421105395
N -0.6075821785257145 0.9248726470512705 0.2242452913852948 0.4308753055723465
O -0.8935532803971371 0.9234402411216234 -0.1409429228196291 -0.7095764258838037
N -1.1707356217859812 0.8267839833678989 -0.0126827882881042 0.9977500474782615
O -1.0547032018551921 0.9350565394583015 0.1653506368184902 -0.9963537733476465
O -0.3040319731576881 2.3048944812682746 0.0135101957382218 -0.1586318904925156
N -0.3866995582610426 2.2436827082866855 0.1619140209554802 0.3123697133706422
