21
s                      x[A]                      y[A]                      z[A]                      q[e]
N 0.0269262463652568 -0.0452089429081402 0.3785514590880363 0.0707249461841811
O 0.1032922924796166 0.2919333138323946 0.3143646237692124 -0.3496602100029151
N 0.3747839091394081 -0.1816342097943224 0.3124438734914291 0.9824851761690530
N 0.0335389797886584 -0.0110628749254776 -0.1886095682181217 0.1071394941056757
O 0.2570230306110430 -0.3287965212960594 0.3217337666464438 -0.8194842575378962
N 0.1010956861185759 0.1255243805374141 0.2901255629018570 0.3116552922920345
N 0.0295314934908661 -0.0160599188094527 0.2435935665434907 0.0918298459672651
N 0.0907243496250766 0.0393083689281869 -0.5505844812934542 0.5593901217632046
O 0.0472135264439217 0.0588229132978782 -0.1977235606674395 -0.9963138680841535
N 0.2252986004126847 0.0831317797448771 -0.4268973524720390 0.9989733053171830
O 0.2005761206858470 0.1005851152527405 -0.3290244189203543 -0.8354521971080898
N 0.0340229140591990 0.0058881024092492 0.4284343753996896 0.2899344186932475
O 0.0347760841133032 -0.0017598199158213 0.0413055744673779 -0.8678253524624289
N 0.0004199096252098 0.0774440466560720 -0.3513816089578902 0.9219570073558310
O 0.1210989100847382 0.2425446100153378 -0.1777550096341106 -0.9704818863270434
O 0.2583514333273056 -0.4174545834971823 -0.1995737609367910 -0.3320651923316272
N 0.0915208715494628 0.0120068760050154 0.3956124248094787 0.9769593393400061
O 0.1998972673311463 -0.5153826380770589 -0.0953277551463131 -0.1970026432733326
O 0.2310745326390867 0.4886506541786702 -0.0747299347948288 -0.1946060569702309
N 0.0214863693470541 0.0008057415300813 0.1844054898861983 0.1283355164991325
N 0.0372243235399323 0.0051875776868111 -0.1493260817185112 0.1235072004109040
