21
s                      x[A]                      y[A]                      z[A]                      q[e]
N -1.8648315818866401 1.2761604931491086 -1.1141835272302461 0.0707249461841811
O -1.6922005843367121 0.2456780452421107 0.0760790594326742 -0.3496602100029151
N -1.4867202967748776 0.1471354484741949 -0.3887262786072874 0.9824851761690530
N -3.1231018984446446 -0.3270031603848365 0.0937038553659830 0.1071394941056757
O -1.5368227268945447 -0.0182529953220024 -0.4838048755759682 -0.8194842575378962
N -0.6158210431972579 -0.2532238319694599 0.3974672373934235 0.3116552922920345
N -0.9536857909500052 -1.4994489166531044 1.0996408078310225 0.0918298459672651
N -1.4132738746766429 -0.5232521469560385 0.4638284059213709 0.5593901217632046
O -1.0734758259536952 -0.4190181793335571 0.4206969595153071 -0.9963138680841535
N 1.2464362862522496 -0.5483981250995795 -0.0628695220504135 0.9989733053171830
O 1.2948929517371557 -0.6241163937627355 -0.0650406366763563 -0.8354521971080898
N 1.6147506875794835 -1.3165424664845964 -0.2669987580860723 0.2899344186932475
O 1.3792040743000984 -1.0076198004256676 -0.2105154909263741 -0.8678253524624289
N 0.2821925877660635 0.2892719555416295 0.1878917022352076 0.9219570073558310
O 0.5085051299635097 0.2481489108622439 0.3035946772144463 -0.9704818863270434
O 0.4626241796246505 0.3885832010290617 -0.3532868453502719 -0.3320651923316272
N 0.7958178903966993 -0.2168241345887461 -0.0187350434293236 0.9769593393400061
O 1.0172498753095176 0.9987618382007919 0.5833136472395625 -0.1970026432733326
O 0.8283288230201284 1.0947005938883216 -0.3984434621951801 -0.1946060569702309
N 2.2020061244507292 1.4676910756953254 -0.1474037366002716 0.1283355164991325
N 0.2139791546513523 2.1885837356724984 0.3768792889410250 0.1235072004109040
