21
s                      x[A]                      y[A]                      z[A]                      q[e]
N -1.9463846817653356 1.4541059746949074 -0.1618143004976625 0.0707249461841811
O -1.6328979973035975 -0.0328745873244634 0.2873671310294009 -0.3496602100029151
N -1.4856420677372140 0.1423341254901854 -0.2097342091116305 0.9824851761690530
N -3.0496606824501171 -0.6345206711187199 0.0540213260011501 0.1071394941056757
O -1.5345658188080311 0.0174553336320259 -0.3430124252605653 -0.8194842575378962
N -0.5153857792974116 -0.6155092709013814 -0.0786714857234948 0.3116552922920345
N -0.7545982312596937 -1.9855660562291426 0.2448096060728365 0.0918298459672651
N -1.2860182345686635 -0.9422381693216665 0.0400883439354774 0.5593901217632046
O -0.9823346020046446 -0.7617916996301414 0.0082891188204112 -0.9963138680841535
N 0.7497526562807852 0.8757218092091665 -0.0761541166052293 0.9989733053171830
O 0.7242750912751398 0.9732954477221583 -0.0905501053109421 -0.8354521971080898
N 0.5659320652316595 1.7313942894063163 0.0113958941263458 0.2899344186932475
O 0.5642174243101157 1.3445323682552661 0.0183542941969002 -0.8678253524624289
N 0.5112581980823780 -0.4074420458684301 -0.0731155907760000 0.9219570073558310
O 0.6257367238941584 -0.2364058640540950 -0.2419186415889017 -0.9704818863270434
O 0.7888866968860130 -0.2557131967415589 0.4126581904495244 -0.3320651923316272
N 0.6112077925843982 0.3393003752356892 -0.0154520461603971 0.9769593393400061
O 1.4754153074785388 -0.5835886138934012 -0.5464218362808435 -0.1970026432733326
O 1.5177790253123422 -0.5410942308559834 0.4565463916800920 -0.1946060569702309
N 2.7715709945121967 -0.0637615116969561 -0.0551864864369624 0.1283355164991325
N 1.6518341389421762 -1.9381125454424462 -0.0270861345091958 0.1235072004109040
