21
s                      x[A]                      y[A]                      z[A]                      q[e]
N 0.0279552480832098 -0.0474866155569359 0.3742023441797164 0.0707249461841811
O 0.1113048061099566 0.2811164717571827 0.3049644664538312 -0.3496602100029151
N 0.3660693899747838 -0.1690761597742608 0.3249243148419454 0.9824851761690530
N 0.0388481624738359 -0.0153034796590225 -0.1883119171351259 0.1071394941056757
O 0.2652420345533749 -0.3381676442013268 0.3128642675894225 -0.8194842575378962
N 0.0867839967032718 0.1248633605696480 0.2883987621497904 0.3116552922920345
N 0.0294682556320310 -0.0106903300777026 0.2485892739131801 0.0918298459672651
N 0.0720110748349672 0.0375322832285093 -0.5514852522993970 0.5593901217632046
O 0.0662516101272330 0.0608831094242838 -0.1942607807502302 -0.9963138680841535
N 0.2174051176660777 0.0850542055277030 -0.4245390183464087 0.9989733053171830
O 0.2057212699953842 0.0975742085583107 -0.3362624325169685 -0.8354521971080898
N 0.0283302118532989 0.0084108167664104 0.4273685138320759 0.2899344186932475
O 0.0414288226893231 -0.0041646453558214 0.0352256007914890 -0.8678253524624289
N -0.0055142481860190 0.0776536017261019 -0.3399290235352779 0.9219570073558310
O 0.1248616401896717 0.2406197383000238 -0.1891317555260754 -0.9704818863270434
O 0.2622166961236779 -0.4182693952649847 -0.2069890908512472 -0.3320651923316272
N 0.0838856074104731 0.0138171586127166 0.4020759564490469 0.9769593393400061
O 0.1950215654858716 -0.5133303045563676 -0.0987114451010033 -0.1970026432733326
O 0.2266125835361524 0.4902900870119395 -0.0765631274789535 -0.1946060569702309
N 0.0231695128833699 -0.0014589295764199 0.1853759585522559 0.1283355164991325
N 0.0352627877958214 0.0044836698038861 -0.1441970156551270 0.1235072004109040
