21
s                      x[A]                      y[A]                      z[A]                      q[e]
N       -1.9880805552317542        1.4118096315349016       -0.1356880073863048        0.0707249461841811
O       -1.6405491284971871       -0.0870905553269314        0.2586804800270764       -0.3496602100029151
N       -1.4837562849661641        0.1126737036211846       -0.2167868266932633        0.9824851761690530
N       -3.0358021896679124       -0.7109253466589737       -0.0234292207783251        0.1071394941056757
O       -1.5278537626872017       -0.0022559731130315       -0.3646831053375369       -0.8194842575378962
N       -0.4746220787391634       -0.6625128132468036       -0.0753877559131950        0.3116552922920345
N       -0.7241176630235246       -2.0160008573442156        0.1535816562435922        0.0918298459672651
N       -1.2287814194669846       -1.0277198835050192        0.0277996172585482        0.5593901217632046
O       -0.9334388011385474       -0.8334182649191944        0.0114907241533103       -0.9963138680841535
N        0.7058694744132041        0.8882432077498572       -0.0567626895632827        0.9989733053171830
O        0.6777142349988758        0.9849092646164875       -0.0808380690612024       -0.8354521971080898
N        0.4836022831927515        1.7357141674209160        0.0265137756383388        0.2899344186932475
O        0.5002899048639866        1.3468770974834567        0.0234675898088630       -0.8678253524624289
N        0.5343719162169315       -0.4024585129952578       -0.0525128167440942        0.9219570073558310
O        0.6432486410633379       -0.2241374515555964       -0.2145877276331218       -0.9704818863270434
O        0.7973387848542931       -0.2432141937945693        0.4396419969581785       -0.3320651923316272
N        0.5965018250641675        0.3470830805193122        0.0146359151233162        0.9769593393400061
O        1.5002487971329770       -0.5250836782244596       -0.5498734665653056       -0.1970026432733326
O        1.5542014766699044       -0.4951348939015914        0.4514771752668701       -0.1946060569702309
N        2.7711437730757673        0.0463270352531821       -0.0990006160296931        0.1283355164991325
N        1.7491062508255868       -1.8768076126024442       -0.0525860193870113        0.1235072004109040

        RMSE         1.014326216E+00 kcal/mol

Coordinates in bohr
s                   x[bohr]                   y[bohr]                   z[bohr]                      q[e]
+       -3.7569277647361505        2.6679335448844936       -0.2564131724692149        0.0707249461841811
-       -3.1001885482182061       -0.1645772976819328        0.4888352612531383       -0.3496602100029151
+       -2.8038930155128106        0.2129224413850449       -0.4096677300573581        0.9824851761690530
+       -5.7368347095375345       -1.3434542008316257       -0.0442748106039204        0.1071394941056757
-       -2.8872251712290500       -0.0042631713300260       -0.6891511916694326       -0.8194842575378962
+       -0.8969057419124995       -1.2519677716430477       -0.1424622118888025        0.3116552922920345
+       -1.3683840657210224       -3.8096894890687443        0.2902272681945996        0.0918298459672651
+       -2.3220603508439153       -1.9421091135119104        0.0525336630112069        0.5593901217632046
-       -1.7639436890275473       -1.5749322686515350        0.0217143216329398       -0.9963138680841535
+        1.3338999869618178        1.6785363954453705       -0.1072659374189877        0.9989733053171830
-        1.2806942954720417        1.8612087685512337       -0.1527618110365183       -0.8354521971080898
+        0.9138758688803976        3.2800244085025878        0.0501037745082962        0.2899344186932475
-        0.9454109035242868        2.5452288388952984        0.0443473175633362       -0.8678253524624289
+        1.0098165707860971       -0.7605363664200475       -0.0992348417226941        0.9219570073558310
-        1.2155637621826347       -0.4235583978981488       -0.4055120351109390       -0.9704818863270434
-        1.5067519325799561       -0.4596082160957609        0.8308029675003210       -0.3320651923316272
+        1.1272250827070325        0.6558919649617272        0.0276578711785139        0.9769593393400061
-        2.8350593466288680       -0.9922643447922529       -1.0391102554645195       -0.1970026432733326
-        2.9370151346882536       -0.9356693446316271        0.8531682131497074       -0.1946060569702309
+        5.2367027853810564        0.0875454088329441       -0.1870840505477301        0.1283355164991325
+        3.3053317783867042       -3.5466523779929733       -0.0993731746694671        0.1235072004109040
