21
s                      x[A]                      y[A]                      z[A]                      q[e]
N -1.7004751180087470 0.1554044668285671 -1.7750478958861065 0.0707249461841811
O -1.6290422888541540 0.1946648591377043 -0.1936288953499244 -0.3496602100029151
N -1.4546637217923624 -0.2433623946912239 -0.4563521665023895 0.9824851761690530
N -3.1287807840325739 -0.1525951368172027 0.0889461981503146 0.1071394941056757
O -1.5185853643161171 -0.4064210676114705 -0.3809959606316894 -0.8194842575378962
N -0.6657197032089868 -0.2480991355076422 0.2941520202249027 0.3116552922920345
N -1.1081472244999755 -0.3504323296452208 1.8034799068096561 0.0918298459672651
N -1.4459569736217892 -0.3058331983541640 0.6138790909713043 0.5593901217632046
O -1.1144234665931896 -0.2396685711108454 0.4939617322519821 -0.9963138680841535
N 0.9603647736732395 0.7754761182103687 -0.1342444790307834 0.9989733053171830
O 0.9659553607660224 0.8719811541303184 -0.1525212525797343 -0.8354521971080898
N 1.0608647583939319 1.6469509918968048 -0.0773486718550823 0.2899344186932475
O 0.9529114303170685 1.2745298388498296 -0.0397479609442791 -0.8678253524624289
N 0.3754454065324798 -0.3855254323641654 0.0360729334325595 0.9219570073558310
O 0.4940924693712553 -0.2609901124181877 -0.1689444378447929 -0.9704818863270434
O 0.7996855814835649 -0.3277367783645451 0.4288362733195384 -0.3320651923316272
N 0.6973026170644088 0.2970925262994142 0.0140120755701914 0.9769593393400061
O 1.1173057495441281 -0.8503742756530871 -0.5986448582760757 -0.1970026432733326
O 1.3905973923697847 -0.8095032297262379 0.3674326383277718 -0.1946060569702309
N 2.5714401043070798 -0.7389893119290626 -0.4570447904576179 0.1283355164991325
N 0.9979715806945356 -2.1860380023493784 -0.0220169224978723 0.1235072004109040
