25
s                      x[A]                      y[A]                      z[A]                      q[e]
N -1.9057562381888007 1.2757092784562052 0.3656086845696379 0.1158659338886357
O -1.7353050245261117 -0.4068052113872127 0.4660652582113631 -0.2341991647481463
N -3.2857123654519302 -0.6615653156940549 0.0863522233515647 0.0569852111266852
N -2.0944990564204442 -0.5269116615035138 -0.0043817525623488 0.3189271149812888
O -1.8705226197566966 -0.3057870696483116 -0.2986074622135250 -0.2877498234141676
N -1.2848399187345683 -0.9479667099242921 -0.2646690635480275 0.5692545008206258
O -0.8614811589964548 -0.5162779945429132 0.3699418447827995 -0.2058946535748549
O -1.0760455009738950 -0.7307347577405198 -0.3064145537507023 -0.9992971180892700
N -0.6608665129637561 -0.4139823198119728 -0.0988577865982423 0.6691943173322236
N -0.7940525374914048 -2.1212475856278408 -0.4121818168155738 0.0628076875181509
N 0.5566451328014017 1.6283818853905967 -0.0641129926572355 0.7576134719858190
O 0.5337586132986495 1.2749267659676560 0.0167767901614975 -0.9235083265987739
N 0.6159512314110215 0.8573253786671040 -0.0416467934579371 0.9955526175656415
O 0.5721000638360214 1.4281960189661667 -0.1092297050209775 -0.9936641819349231
O 0.4875339804934713 -0.2041547625417054 -0.1690627976354857 -0.9934394819660318
N 0.4888581691010420 0.2179308731346484 -0.0023461265484730 0.8475065253219278
N 0.4512905426075819 -0.4842756117432174 -0.0730633155928685 0.9207393412409772
O 0.6661723650273883 -0.3015157664065086 0.2152134051266769 -0.6738758902636315
N 2.8350244042166777 -0.0534767832511796 0.2265540274306345 0.1207489421105395
N 1.1413359499775559 -0.7150792743286335 0.1138135621193537 0.4308753055723465
O 1.4337072498221219 -0.4554739705683527 -0.1498722105469610 -0.7095764258838037
N 1.5559239751900422 -0.2467325650987691 0.0639632451267936 0.9977500474782615
O 1.4982317758608681 -0.4384212046459083 0.1967096647134406 -0.9963537733476465
O 1.8370685436595695 -1.9094325627801758 -0.2364171674016413 -0.1586318904925156
N 1.8135084167909103 -1.8609299539270143 -0.0699290046468192 0.3123697133706422
