21
s                      x[A]                      y[A]                      z[A]                      q[e]
N       -1.8660871342866321        1.3067196586289844        0.8199945274760876        0.0707249461841811
O       -1.5708408274588044       -0.1757554049792572        0.3934979152637132       -0.3496602100029151
N       -1.4925263366794681        0.2092070289415239        0.0108336083713905        0.9824851761690530
N       -3.0432993796276913       -0.6303438269380011        0.1206726962330609        0.1071394941056757
O       -1.5916240790991567        0.1698756175242878       -0.1450505586322734       -0.8194842575378962
N       -0.5077006665430124       -0.5949768339139312       -0.3377947384880355        0.3116552922920345
N       -0.8549611924372388       -1.8460610652283349       -0.7497945918745910        0.0918298459672651
N       -1.2971730474220502       -0.9002460046947638       -0.3372743704699837        0.5593901217632046
O       -0.9827616813542588       -0.7345685806444996       -0.3259535759429834       -0.9963138680841535
N        0.7839441031989607        0.8694512826040592       -0.1597835920441366        0.9989733053171830
O        0.7637345306978081        0.9661098573166338       -0.1842610112006502       -0.8354521971080898
N        0.6097525259162606        1.7304078397756966       -0.1089969809678151        0.2899344186932475
O        0.5979697623093911        1.3419081574422675       -0.1027000448231973       -0.8678253524624289
N        0.5219993165555069       -0.4117028027360295       -0.1750295369888553        0.9219570073558310
O        0.6656705049570965       -0.2463211579560184       -0.3311510317354488       -0.9704818863270434
O        0.7271930800676945       -0.2665118256126280        0.3413899187764728       -0.3320651923316272
N        0.6271442457879897        0.3313037913600979       -0.1019500398857367        0.9769593393400061
O        1.5627464197723839       -0.6223672520592453       -0.3643151180562094       -0.1970026432733326
O        1.3642267466493676       -0.5475430583428866        0.6184241564427906       -0.1946060569702309
N        2.7170790013473893       -0.1054831497224149        0.3904531619394213        0.1283355164991325
N        1.5836481378565310       -1.9538627137892952        0.2186281340831655        0.1235072004109040

        RMSE         4.941390200E-01 kcal/mol

Coordinates in bohr
s                   x[bohr]                   y[bohr]                   z[bohr]                      q[e]
+       -3.5263936100421791        2.4693422775605267        1.5495650813040096        0.0707249461841811
-       -2.9684589505846950       -0.3321295804797232        0.7436032907870295       -0.3496602100029151
+       -2.8204660113570572        0.3953439882202097        0.0204725527723953        0.9824851761690530
+       -5.7510023452720489       -1.1911771977858086        0.2280383467010516        0.1071394941056757
-       -3.0077336041814333        0.3210183925139283       -0.2741058301596596       -0.8194842575378962
+       -0.9594152134786836       -1.1243432670893390       -0.6383395423630356        0.3116552922920345
+       -1.6156425016012279       -3.4885498241524924       -1.4169064289924043        0.0918298459672651
+       -2.4513017969531945       -1.7012183944107258       -0.6373561893244705        0.5593901217632046
-       -1.8571504243540042       -1.3881334377843864       -0.6159629881458579       -0.9963138680841535
+        1.4814396527136837        1.6430248035497081       -0.3019472283053005        0.9989733053171830
-        1.4432490955739214        1.8256830374335775       -0.3482028467691461       -0.8354521971080898
+        1.1522652782878591        3.2699969025211773       -0.2059744425309099        0.2899344186932475
-        1.1299990820698642        2.5358389030836297       -0.1940749577880859       -0.8678253524624289
+        0.9864357459660724       -0.7780055422544857       -0.3307578887746271        0.9219570073558310
-        1.2579349441641299       -0.4654795274425123       -0.6257847561427919       -0.9704818863270434
-        1.3741957616560685       -0.5036343596036440        0.6451334484798266       -0.3320651923316272
+        1.1851308656961095        0.6260734299964065       -0.1926576538635442        0.9769593393400061
-        2.9531627369095599       -1.1761036558457532       -0.6884557964900718       -0.1970026432733326
-        2.5780149241916477       -1.0347064221636326        1.1686522850441605       -0.1946060569702309
+        5.1345351737790272       -0.1993342638260271        0.7378495408845406        0.1283355164991325
+        2.9926612596401267       -3.6922654158055623        0.4131472967370549        0.1235072004109040
