13

C  2.08746  1.13994 -0.03725
C  1.48844 -0.22024  0.17849
H  1.42466  1.76344 -0.64646
H  3.05369  1.04048 -0.53260
H  2.21957  1.65128  0.92351
C  0.13771 -0.30544  0.89610
O  2.05917 -1.26031 -0.15698
C -1.04142 -0.00391  0.01171
H  0.10291  0.39474  1.73546
H  0.01507 -1.32357  1.27167
F -1.04493  1.31817 -0.43944
F -2.24031 -0.19005  0.69168
F -1.08392 -0.80655 -1.11780
