21
s                      x[A]                      y[A]                      z[A]                      q[e]
N 0.0274183249277310 -0.0440537384699454 0.3738623971748266 0.0707249461841811
O 0.1131418962688312 0.2972951877637073 0.3040305886879777 -0.3496602100029151
N 0.3630964842738923 -0.1866444741574579 0.3281267721826419 0.9824851761690530
N 0.0397105594286516 -0.0092832069049200 -0.1888198200013719 0.1071394941056757
O 0.2683319566608228 -0.3213009212469973 0.3093651858593170 -0.8194842575378962
N 0.0871940720823511 0.1298257758019235 0.2877647863523189 0.3116552922920345
N 0.0304469428540447 -0.0193179185853343 0.2509693860409120 0.0918298459672651
N 0.0721677911785483 0.0458588250399863 -0.5519619178642494 0.5593901217632046
O 0.0661743210510706 0.0514927899897693 -0.1935006710096015 -0.9963138680841535
N 0.2173779781413229 0.0824672923492492 -0.4249713483295939 0.9989733053171830
O 0.2056186714802544 0.0998803301052390 -0.3364909377274474 -0.8354521971080898
N 0.0284608114120519 0.0053211964130335 0.4275997005996439 0.2899344186932475
O 0.0411196945368264 -0.0018886364080575 0.0344878904973969 -0.8678253524624289
N -0.0052170104065890 0.0800464399272067 -0.3405774345977340 0.9219570073558310
O 0.1252773754791741 0.2387014375392833 -0.1878278261642324 -0.9704818863270434
O 0.2600578726085063 -0.4190539388130494 -0.2082413077524262 -0.3320651923316272
N 0.0842144395982960 0.0134230662744103 0.4018045873739841 0.9769593393400061
O 0.1965341959920698 -0.5148331899118818 -0.0976135212976317 -0.1970026432733326
O 0.2270188443928746 0.4892263115763655 -0.0787706702320741 -0.1946060569702309
N 0.0224070872592863 0.0016641935377626 0.1859124798697088 0.1283355164991325
N 0.0344617695608492 0.0037763689935254 -0.1447569163888353 0.1235072004109040
