21
s                      x[A]                      y[A]                      z[A]                      q[e]
N        1.7873581103917309        0.9127226305554076       -1.5155479247534838        0.0707249461841811
O        1.6309832832136191       -0.1239189235395662       -0.3660946495034760       -0.3496602100029151
N        1.5091166731180057        0.3859717357297385       -0.2210399022727056        0.9824851761690530
N        3.1409439862313557       -0.1840341839028149        0.0958160389856079        0.1071394941056757
O        1.5946004522995318        0.4521806238019823       -0.0950304099386040       -0.8194842575378962
N        0.6881041358872169       -0.0983759396566358        0.2425078964524980        0.3116552922920345
N        1.0428781607021202       -1.0281132979568530        1.5130673359585549        0.0918298459672651
N        1.4584201246825992       -0.2821949698768450        0.5341222166595574        0.5593901217632046
O        1.1196114137500066       -0.2162663307007212        0.4366245988681473       -0.9963138680841535
N       -1.1241645706313250       -0.6297856330035511       -0.2447888423681696        0.9989733053171830
O       -1.1552364206869750       -0.7093074875162562       -0.2773713537701868       -0.8354521971080898
N       -1.4265622440063859       -1.4509141776856782       -0.2967102126907283        0.2899344186932475
O       -1.2380185374950341       -1.1151308471822972       -0.2180908599646831       -0.8678253524624289
N       -0.2849700478647640        0.3279631800934212        0.0474982627050080        0.9219570073558310
O       -0.4265816997131759        0.2802350867993136       -0.1611883364800661       -0.9704818863270434
O       -0.7028193995922762        0.3338534445463757        0.4487249221830662       -0.3320651923316272
N       -0.7551889243477886       -0.2489884866574539       -0.0479294234262775        0.9769593393400061
O       -0.9169265155792167        1.0682211110077433       -0.4360881838921823       -0.1970026432733326
O       -1.1773121567379559        0.9147322864536040        0.5220259949590271       -0.1946060569702309
N       -2.3649944993046144        1.2481378536375378       -0.2372935512030165        0.1283355164991325
N       -0.5017323373292387        2.2170703656799660        0.3548486323817966        0.1235072004109040

        RMSE         6.052973096E-01 kcal/mol

Coordinates in bohr
s                   x[bohr]                   y[bohr]                   z[bohr]                      q[e]
+        3.3776173167561905        1.7247958002571471       -2.8639705077900528        0.0707249461841811
-        3.0821117204737600       -0.2341728272513293       -0.6918186235570454       -0.3496602100029151
+        2.8518172035550968        0.7293808726967915       -0.4177048780933769        0.9824851761690530
+        5.9355239093810459       -0.3477742052984598        0.1810660721089891        0.1071394941056757
-        3.0133581343772948        0.8544975382244239       -0.1795814483739472       -0.8194842575378962
+        1.3003283626216573       -0.1859035832856075        0.4582735075561072        0.3116552922920345
+        1.9707541059482039       -1.9428525590796735        2.8592828743377581        0.0918298459672651
+        2.7560146115061710       -0.5332712070490588        1.0093447070090120        0.5593901217632046
-        2.1157589389241616       -0.4086841351820552        0.8251009114986825       -0.9963138680841535
+       -2.1243631584360969       -1.1901223641248062       -0.4625838706437082        0.9989733053171830
-       -2.1830804452525667       -1.3403968901423216       -0.5241558936731276       -0.8354521971080898
+       -2.6958119420906126       -2.7418304273697873       -0.5607010406118181        0.2899344186932475
-       -2.3395159741054576       -2.1072918952243080       -0.4121319957988264       -0.8678253524624289
+       -0.5385153444230123        0.6197605896107687        0.0897587079475129        0.9219570073558310
-       -0.8061225825901946        0.5295675647946050       -0.3046018105654680       -0.9704818863270434
-       -1.3281361808881094        0.6308915762333723        0.8479672085933712       -0.3320651923316272
+       -1.4271002399964114       -0.4705200481747985       -0.0905734836267671        0.9769593393400061
-       -1.7327399916150601        2.0186453412369194       -0.8240872341045146       -0.1970026432733326
-       -2.2247975404068168        1.7285934995111494        0.9864861608421900       -0.1946060569702309
+       -4.4691918918999853        2.3586387101917143       -0.4484198231110051        0.1283355164991325
+       -0.9481367058380824        4.1896557920037720        0.6705667311948618        0.1235072004109040
