25
s                      x[A]                      y[A]                      z[A]                      q[e]
N -2.0063158862430148 1.2022356537934378 0.0714929790017152 0.1158659338886357
O -1.6394434458171496 -0.3944996178204873 0.6143082452740257 -0.2341991647481463
N -3.1763439104745999 -0.8472199702696193 0.5030438753699036 0.0569852111266852
N -2.0244660613797425 -0.6444987187029007 0.2218489009881576 0.3189271149812888
O -1.8501454150936536 -0.4780060024417594 -0.1352544247228269 -0.2877498234141676
N -1.2176899124616023 -1.0273651099436458 -0.0044147082362352 0.5692545008206258
O -0.7310867290791871 -0.5546946223965614 0.4434870636154730 -0.2058946535748549
O -1.0446542467721109 -0.7980466388899013 -0.1044107737729386 -0.9992971180892700
N -0.6266116447242218 -0.4452569470171512 -0.0540991978619293 0.6691943173322236
N -0.6088052575158078 -2.1818699709948191 0.0289466282737955 0.0628076875181509
N 0.4151695544615787 1.6870397554879242 -0.2456653012885484 0.7576134719858190
O 0.4342480892068862 1.3342741917361689 -0.1608718007795181 -0.9235083265987739
N 0.5362623289008389 0.9230397506339445 -0.2318590504899771 0.9955526175656415
O 0.4375137588478227 1.4878324261891902 -0.2922048568075776 -0.9936641819349231
O 0.4757841519507852 -0.1451589758515717 -0.3316472974838427 -0.9934394819660318
N 0.4717483385463065 0.2784335060362759 -0.1688418699441769 0.8475065253219278
N 0.4809155714945791 -0.4256077594681100 -0.2300632150639794 0.9207393412409772
O 0.7280423759800260 -0.2209339786636374 0.0143049750483690 -0.6738758902636315
N 2.8202872940602122 -0.0073004706469034 0.3594990127522887 0.1207489421105395
N 1.2094646403570684 -0.5982060322270991 -0.2208466708193818 0.4308753055723465
O 1.4697015009331840 -0.2958914452359224 -0.2303444410034143 -0.7095764258838037
N 1.5646768017035748 -0.1921214292227820 0.0602531853469799 0.9977500474782615
O 1.5161142990452747 -0.4247877007770531 0.0949320798584956 -0.9963537733476465
O 1.9961482179712857 -1.5473559004978794 -0.8878414663513099 -0.1586318904925156
N 1.9607274483384742 -1.5757014758557559 -0.7188213834695505 0.3123697133706422
