21
s                      x[A]                      y[A]                      z[A]                      q[e]
N        1.9506813826947864        1.3553076876125814        1.1336050344392981        0.0690680479201058
O        1.9256909649069691       -0.0594476916637499       -0.1928688911379031       -0.3117950550350966
N        1.9825894919749396       -0.3129473674376591        0.0880786732043137        0.5776243102962968
N        3.3188043810926739       -0.4955933958254439        0.2045055223915994        0.0604184539076988
O        1.7817743126570127       -0.4112980185553229        0.3619076981853762       -0.3968494342195521
O        0.9118901667782042       -0.0348256085184673       -0.4041313414421399       -0.9828651838991298
N        0.7411400605723771        0.1047626446428886       -0.3771371157654467        0.7759263489545838
N        1.1139163919986859       -1.1700861179212467       -0.6100816388861557        0.9970342621901004
O        1.0626889647764461       -1.3158157121875285       -0.3757016368803127       -0.3970377457969525
O        1.2125541802027233       -1.0531404752247000       -0.8375735491309755       -0.3893757401670396
N       -1.6185640867953117       -1.3463244336332387        0.3564128475276198        0.1691966627363242
O       -1.3464808014926219       -1.0124788127140263        0.2251307344063723       -0.6800109224217911
O       -0.3733302451943064        0.4162183436150018        0.2022257892092807       -0.9821368279659007
N       -0.2436958722896140        0.5116761009397622        0.0576488715268957        0.8921713087406896
O       -0.6630033233548701        0.4637794097082644       -0.4343463605602428       -0.3335771210350215
N       -0.7681392508505516       -0.1394234219856438        0.0023057580404926        0.9988617281482304
N       -2.4055290969189844        1.5399725580423362        0.1295601786376331        0.0655379221577991
N       -1.1724189681075066        1.0424524151759511       -0.0548232132709586        0.9908754307264420
O       -0.9893438287213885        1.0366042506988016        0.2746078869579675       -0.6595771554465193
O       -1.1600118751488728        1.0675664044134814       -0.4262978993942312       -0.5578053818499882
N       -0.0365919483648911        2.2983693867205233       -0.2128714102579500        0.0943160920587207

        RMSE         7.257401206E+00 kcal/mol

Coordinates in bohr
s                   x[bohr]                   y[bohr]                   z[bohr]                      q[e]
+        3.6862535713225375        2.5611603453153320        2.1422030495304627        0.0690680479201058
-        3.6390285259427935       -0.1123398560351497       -0.3644693823713773       -0.3117950550350966
+        3.7465511590432063       -0.5913848161401949        0.1664445698498540        0.5776243102962968
+        6.2716313442347245       -0.9365357876957039        0.3864594284638062        0.0604184539076988
-        3.3670654682976213       -0.7772406110130322        0.6839064322652121       -0.3968494342195521
-        1.7232226717088686       -0.0658108622523143       -0.7636975540395297       -0.9828651838991298
+        1.4005517350870182        0.1979727065537212       -0.7126858605417780        0.7759263489545838
+        2.1049969075356398       -2.2111423060713089       -1.1528872116652971        0.9970342621901004
-        2.0081910999737840       -2.4865313276086711       -0.7099731985899972       -0.3970377457969525
-        2.2913953128621856       -1.9901470698091881       -1.5827846177852403       -0.3893757401670396
+       -3.0586428405448922       -2.5441844555789452        0.6735226694217606        0.1691966627363242
-       -2.5444799480080036       -1.9133076638582189        0.4254354304512293       -0.6800109224217911
-       -0.7054919177672576        0.7865386778240524        0.3821513571101054       -0.9821368279659007
+       -0.4605184565319180        0.9669276957182654        0.1089405786275367        0.8921713087406896
-       -1.2528947014090623        0.8764160669751172       -0.8207956650482164       -0.3335771210350215
+       -1.4515728103218914       -0.2634720830270024        0.0043572512081033        0.9988617281482304
+       -4.5457911799967805        2.9101263754207243        0.2448332543905185        0.0655379221577991
+       -2.2155507540150632        1.9699495635046054       -0.1036008583996768        0.9908754307264420
-       -1.8695888801952827        1.9588981343061616        0.5189336982412412       -0.6595771554465193
-       -2.1921047463101493        2.0174081250812330       -0.8055862777130716       -0.5578053818499882
+       -0.0691487608065386        4.3432886760382594       -0.4022686653274997        0.0943160920587207
