21
s                      x[A]                      y[A]                      z[A]                      q[e]
N 1.9567565096983264 1.4165473760563150 0.3151412595294055 0.0707249461841811
O 1.6544889607813453 -0.0469767692599195 -0.2269440579541521 -0.3496602100029151
N 1.4697861032664865 0.1140245306390714 0.2624856344010433 0.9824851761690530
N 3.0390659435559533 -0.6781988555259333 0.0631506215456811 0.1071394941056757
O 1.5061436123385112 -0.0159287392528892 0.3949579790326725 -0.8194842575378962
N 0.4955379479364025 -0.6411732611079268 0.0188488875730478 0.3116552922920345
N 0.7560378192364505 -1.9866474485287882 -0.3210990635648685 0.0918298459672651
N 1.2563800921273409 -0.9882000903680117 -0.1055685824235748 0.5593901217632046
O 0.9577447974607632 -0.7998566831754716 -0.0718456118769965 -0.9963138680841535
N -0.7266744510167935 0.8833464836462025 0.0385655355005843 0.9989733053171830
O -0.6984841685167746 0.9802040719479024 0.0529066583794248 -0.8354521971080898
N -0.5238521217761962 1.7351395975948694 -0.0486112332258324 0.2899344186932475
O -0.5314831755671444 1.3479887291607138 -0.0575280499939378 -0.8678253524624289
N -0.5247359898322735 -0.4073530664363372 0.0218401227088703 0.9219570073558310
O -0.6330382658678876 -0.2324152197071566 0.1908483599053956 -0.9704818863270434
O -0.8032789031850296 -0.2510864820615358 -0.4620604555025716 -0.3320651923316272
N -0.6058794876108696 0.3414641974503186 -0.0391841681004928 0.9769593393400061
O -1.4486392270173414 -0.5491271217795435 0.5838460876070977 -0.1970026432733326
O -1.5642830033401500 -0.5209567098233734 -0.4138961958933273 -0.1946060569702309
N -2.7567967233006936 -0.0019376957774896 0.2104518718201067 0.1283355164991325
N -1.7000037998170472 -1.9060692630242440 0.1027535515113462 0.1235072004109040
