21
s                      x[A]                      y[A]                      z[A]                      q[e]
N 1.4880995673592550 0.0287269441995514 0.0951500558310070 0.0707249461841811
O 0.5125690421938176 -0.2088293112673829 0.2620442240613009 -0.3496602100029151
N 0.8160506585731717 0.2454617549909187 0.2289304272404852 0.9824851761690530
N -0.7022334105994723 0.2364780255124334 0.0476149423304211 0.1071394941056757
O 0.7074054962842140 0.3980193687527186 0.2028335671180916 -0.8194842575378962
N -0.0541547232022462 -0.0669095551596962 -0.5967118209861803 0.3116552922920345
N 1.0193359200031558 0.0140981936223697 -0.2232548340838797 0.0918298459672651
N -0.0490653329544890 0.0860256186291496 -0.5687678337091888 0.5593901217632046
O 0.2696255061033904 0.0691722284358026 -0.7235115874944374 -0.9963138680841535
N -1.2232277308050745 0.0328959100192799 -0.3971189567561455 0.9989733053171830
O -1.1936431705948383 0.0157703655190614 -0.3011334278092443 -0.8354521971080898
N -0.9868519144795336 0.0989949864791834 0.4478932211218475 0.2899344186932475
O -1.0053954924123967 0.1089080290366701 0.0611356680769736 -0.8678253524624289
N -0.1308510236912379 0.0305569239840240 0.3525535232597237 0.9219570073558310
O -0.3424216178954431 -0.1270641999248187 0.3166385901704583 -0.9704818863270434
O -0.3717596727129274 0.5394745659817697 0.2142385708699897 -0.3320651923316272
N -0.8375336202931420 0.0987391011451570 0.6113708804303484 0.9769593393400061
O -0.4354555310195095 -0.3558357875161026 -0.6182175697467280 -0.1970026432733326
O -0.1635662161411999 -0.4971835769263757 0.5245682043346275 -0.1946060569702309
N -0.4273886060552506 -0.1745928352953380 0.3855045638458467 0.1283355164991325
N -0.9701384264777613 -0.2176787939766693 0.0906863313187348 0.1235072004109040
