21
s                      x[A]                      y[A]                      z[A]                      q[e]
N        1.9567565096983264        1.4165473760563150        0.3151412595294055        0.0707249461841811
O        1.6544889607813451       -0.0469767692599195       -0.2269440579541521       -0.3496602100029151
N        1.4697861032664865        0.1140245306390714        0.2624856344010433        0.9824851761690530
N        3.0390659435559533       -0.6781988555259333        0.0631506215456811        0.1071394941056757
O        1.5061436123385112       -0.0159287392528892        0.3949579790326725       -0.8194842575378962
N        0.4955379479364025       -0.6411732611079268        0.0188488875730478        0.3116552922920345
N        0.7560378192364505       -1.9866474485287882       -0.3210990635648684        0.0918298459672651
N        1.2563800921273409       -0.9882000903680117       -0.1055685824235748        0.5593901217632046
O        0.9577447974607632       -0.7998566831754716       -0.0718456118769965       -0.9963138680841535
N       -0.7266744510167935        0.8833464836462025        0.0385655355005843        0.9989733053171830
O       -0.6984841685167745        0.9802040719479024        0.0529066583794248       -0.8354521971080898
N       -0.5238521217761962        1.7351395975948694       -0.0486112332258324        0.2899344186932475
O       -0.5314831755671444        1.3479887291607138       -0.0575280499939378       -0.8678253524624289
N       -0.5247359898322735       -0.4073530664363372        0.0218401227088703        0.9219570073558310
O       -0.6330382658678876       -0.2324152197071566        0.1908483599053956       -0.9704818863270434
O       -0.8032789031850296       -0.2510864820615358       -0.4620604555025715       -0.3320651923316272
N       -0.6058794876108696        0.3414641974503185       -0.0391841681004928        0.9769593393400061
O       -1.4486392270173414       -0.5491271217795435        0.5838460876070977       -0.1970026432733326
O       -1.5642830033401500       -0.5209567098233734       -0.4138961958933273       -0.1946060569702309
N       -2.7567967233006936       -0.0019376957774896        0.2104518718201067        0.1283355164991325
N       -1.7000037998170472       -1.9060692630242440        0.1027535515113462        0.1235072004109040

        RMSE         4.067648552E-01 kcal/mol

Coordinates in bohr
s                   x[bohr]                   y[bohr]                   z[bohr]                      q[e]
+        3.6977338975366014        2.6768865844823533        0.5955306713424033        0.0707249461841811
-        3.1265310134700801       -0.0887732281600741       -0.4288621153333766       -0.3496602100029151
+        2.7774931981775368        0.2154751344917198        0.4960259608850235        0.9824851761690530
+        5.7430023105268306       -1.2816100955429552        0.1193373793737736        0.1071394941056757
-        2.8461989329275119       -0.0301009547117903        0.7463624114360663       -0.8194842575378962
+        0.9364310063711808       -1.2116418624606429        0.0356192352826058        0.3116552922920345
+        1.4287044188452835       -3.7542195855589870       -0.6067892892785758        0.0918298459672651
+        2.3742142835981492       -1.8674275279482184       -0.1994957082333774        0.5593901217632046
-        1.8098753652829205       -1.5115100708187337       -0.1357685297634635       -0.9963138680841535
+       -1.3732156947891596        1.6692829279775350        0.0728782999777255        0.9989733053171830
-       -1.3199437814648372        1.8523172430400958        0.0999790945502714       -0.8354521971080898
+       -0.9899370403969936        3.2789386288914075       -0.0918619174175791        0.2899344186932475
-       -1.0043576421105225        2.5473295183176972       -0.1087122590201883       -0.8678253524624289
+       -0.9916073089540206       -0.7697857319301047        0.0412718504661570        0.9219570073558310
-       -1.1962689494250658       -0.4392011126346349        0.3606511317140043       -0.9704818863270434
-       -1.5179771293778599       -0.4744846849009824       -0.8731677143041537       -0.3320651923316272
+       -1.1449462966172628        0.6452738148303573       -0.0740473461638325        0.9769593393400061
-       -2.7375313936577035       -1.0376998682242657        1.1033092049974724       -0.1970026432733326
-       -2.9560664590215167       -0.9844655047857814       -0.7821504546072316       -0.1946060569702309
+       -5.2095907905978560       -0.0036617143339114        0.3976964003299577        0.1283355164991325
+       -3.2125415938918538       -3.6019488832690625        0.1941760707745676        0.1235072004109040
