21
s                      x[A]                      y[A]                      z[A]                      q[e]
N       -2.0046328088088918        1.3980910253322998        0.0612600008673176        0.0707249461841811
O       -1.6053170260447125       -0.1188018249169249        0.3310366196097838       -0.3496602100029151
N       -1.5013959285042953        0.1184371840996682       -0.1511418183040659        0.9824851761690530
N       -3.0180971232965703       -0.7410495017997192        0.1249701183944087        0.1071394941056757
O       -1.5576117378679428        0.0086042027399460       -0.2944426972160990       -0.8194842575378962
N       -0.4725863132490475       -0.6553230620671329       -0.1527813629605695        0.3116552922920345
N       -0.6889219943104810       -2.0232649788092352       -0.0108965660521958        0.0918298459672651
N       -1.2208270654052247       -1.0273246171580781       -0.0144703738290421        0.5593901217632046
O       -0.9286074859641961       -0.8293882847691469       -0.0494338219956778       -0.9963138680841535
N        0.6993201922296386        0.9081500253109306       -0.1442585225640394        0.9989733053171830
O        0.6684139889496734        1.0041034200405456       -0.1590742197517738       -0.8354521971080898
N        0.4680205014850545        1.7529849280029253       -0.0603381110457787        0.2899344186932475
O        0.4876181885680873        1.3662473401669448       -0.0517645267101712       -0.8678253524624289
N        0.5410669110818209       -0.3863755103615824       -0.1338115242712097        0.9219570073558310
O        0.6469795252329255       -0.2075059871924846       -0.3001985108355213       -0.9704818863270434
O        0.8037601583454999       -0.2218620197512537        0.3561810662991424       -0.3320651923316272
N        0.5955208112428545        0.3646181861029820       -0.0699463019434800        0.9769593393400061
O        1.5191248694335582       -0.5008914306308310       -0.5972427300739461       -0.1970026432733326
O        1.5020976653321962       -0.5316209600754743        0.4747754319291912       -0.1946060569702309
N        2.7695107716508294        0.0466991611158850        0.0944810433159569        0.1283355164991325
N        1.7494336516967599       -1.8656704909184816       -0.1218272002005167        0.1235072004109040

        RMSE         3.359059683E+00 kcal/mol

Coordinates in bohr
s                   x[bohr]                   y[bohr]                   z[bohr]                      q[e]
+       -3.7882069907560703        2.6420091363385692        0.1157646240845393        0.0707249461841811
-       -3.0336095237589578       -0.2245029122975798        0.6255685485598537       -0.3496602100029151
+       -2.8372271107505802        0.2238138410188015       -0.2856166426983935        0.9824851761690530
+       -5.7033769830626451       -1.4003806038084372        0.2361592976314720        0.1071394941056757
-       -2.9434595943688220        0.0162595867064118       -0.5564160573795313       -0.8194842575378962
+       -0.8930587026805220       -1.2383811110032827       -0.2887149330696431        0.3116552922920345
+       -1.3018738910510250       -3.8234166891796906       -0.0205915255466113        0.0918298459672651
+       -2.3070288001622656       -1.9413621683695816       -0.0273450434698821        0.5593901217632046
-       -1.7548138265222548       -1.5673167098769138       -0.0934163849064642       -0.9963138680841535
+        1.3215236373165384        1.7161548286652535       -0.2726090989092129        0.9989733053171830
-        1.2631193775396778        1.8974804655121744       -0.3006067089517466       -0.8354521971080898
+        0.8844305689061817        3.3126614159809380       -0.1140225048039836        0.2899344186932475
-        0.9214648301855363        2.5818332925507441       -0.0978207784961701       -0.8678253524624289
+        1.0224682774920846       -0.7301438961673841       -0.2528671333026393        0.9219570073558310
-        1.2226141114689615       -0.3921294851865556       -0.5672929687494195       -0.9704818863270434
-        1.5188865698276119       -0.4192584549707848        0.6730846663789162       -0.3320651923316272
+        1.1253712352594620        0.6890285120958496       -0.1321793541617558        0.9769593393400061
-        2.8707299536013071       -0.9465476224810287       -1.1286251902604938       -0.1970026432733326
-        2.8385532011674606       -1.0046180170955969        0.8971955374421173       -0.1946060569702309
+        5.2336168599254416        0.0882486247976522        0.1785432959146765        0.1283355164991325
+        3.3059504763664576       -3.5256062681843865       -0.2302200430102976        0.1235072004109040
