25
s                      x[A]                      y[A]                      z[A]                      q[e]
N 0.0658885869263999 -0.0042884593316176 0.2424663892912252 0.1158659338886357
O -0.1729674260846484 0.4378971886427887 0.3079575964267905 -0.2341991647481463
N -0.0850438770509749 -0.0065322020600091 -0.3906229723423914 0.0569852111266852
N -0.5078771568403843 -0.0316314511427546 0.1395288604759399 0.3189271149812888
O -0.2383145696134114 -0.3388367515268408 0.2745770796560595 -0.2877498234141676
N 0.0378527227859052 0.1134318180906918 -0.5491991632346818 0.5692545008206258
O -0.1601847178577729 -0.4952286145624730 0.0428301297859721 -0.2058946535748549
O -0.0752123420988227 0.1646961773104253 -0.2710154918434393 -0.9992971180892700
N -0.1848195898858371 -0.0183537746873515 0.2453266921245262 0.6691943173322236
N 0.0180868062310709 -0.0208252151187090 0.3798180738603563 0.0628076875181509
N 0.0544091526516578 0.0046420779327374 0.2877187804422665 0.7576134719858190
O 0.0316592714354507 -0.0741436657353613 -0.0621861096045038 -0.9235083265987739
N 0.1036259794347342 -0.0095574554598057 -0.4783668909348714 0.9955526175656415
O 0.0642117898145794 0.0500961423613954 0.0892442286428279 -0.9936641819349231
O -0.0446431168212077 0.1142986216363967 -0.1220439525638951 -0.9934394819660318
N -0.0279491681892234 -0.0518843185454574 0.2969336231654033 0.8475065253219278
N -0.0790481847009675 0.0192328880578972 -0.4012146615151018 0.9207393412409772
O 0.1543940145928368 -0.2536206734300244 -0.2247908803447235 -0.6738758902636315
N -0.0650557624768366 0.0224990080804492 0.2187129161890863 0.1207489421105395
N 0.2632815461591113 0.0752977607981986 -0.4898497480410749 0.4308753055723465
O 0.3514034894404622 -0.2097671236556714 -0.1282649384199063 -0.7095764258838037
N 0.4490919028603538 -0.0076260327575382 0.0997397952084886 0.9977500474782615
O 0.3076818449826204 0.1241330223776277 -0.0387463528913907 -0.9963537733476465
O -0.0330194156385153 -0.3696414732546693 -0.1374999750988491 -0.1586318904925156
N -0.0283560975273067 -0.1996942447200662 -0.0913815782616930 0.3123697133706422
