25
s                      x[A]                      y[A]                      z[A]                      q[e]
N       -1.8721133608948415        1.2433118626164730        0.5613138915372148        0.1158659338886357
O       -1.7192052351572185       -0.4392765558783710        0.4678203047869596       -0.2341991647481463
N       -3.2888105982348828       -0.6346529787210965        0.1138725772237859        0.0569852111266852
N       -2.0987342827520479       -0.5056403837645231        0.0023027334635860        0.3189271149812888
O       -1.8840562803715368       -0.2559339031982564       -0.2752979164600638       -0.2877498234141676
N       -1.2981184403825987       -0.9134495080728973       -0.3416926597846555        0.5692545008206258
O       -0.8855375484912263       -0.4886013394038284        0.3049717275196876       -0.2058946535748549
O       -1.0833596885950108       -0.7004844650723600       -0.3767500591099924       -0.9992971180892700
N       -0.6682629755863697       -0.3924570651919129       -0.1578803494454721        0.6691943173322236
N       -0.8380945327901470       -2.0577179480666050       -0.6263401603643559        0.0628076875181509
N        0.5892710770920481        1.6253747122482263       -0.0909187692891298        0.7576134719858190
O        0.5569949232987540        1.2731032295305538       -0.0101742933298990       -0.9235083265987739
N        0.6330041332913939        0.8535980951575222       -0.0642890281853265        0.9955526175656415
O        0.6021266865257267        1.4250591250875000       -0.1352934460821124       -0.9936641819349231
O        0.4883141539313192       -0.2063305631435883       -0.1924279766396078       -0.9934394819660318
N        0.4925729715208081        0.2158347124586633       -0.0270828946449246        0.8475065253219278
N        0.4437567026702091       -0.4856543922174348       -0.0968694632774174        0.9207393412409772
O        0.6530005140957078       -0.3057899944538285        0.1973313580821628       -0.6738758902636315
N        2.8170916541927222       -0.0970960366288362        0.3222441948088403        0.1207489421105395
N        1.1183052406446190       -0.7272694106779510        0.1319400241393720        0.4308753055723465
O        1.4283454335924985       -0.4761362887820923       -0.1194211665404352       -0.7095764258838037
N        1.5439025161995950       -0.2676902630820515        0.0980729667551392        0.9977500474782615
O        1.4758278124271675       -0.4564525330530215        0.2295687077636155       -0.9963537733476465
O        1.8065060628072076       -1.9385052321205765       -0.1705597852069442       -0.1586318904925156
N        1.7756671969000521       -1.8877570683906351       -0.0061272020608990        0.3123697133706422

        RMSE         4.332058785E-01 kcal/mol

Coordinates in bohr
s                   x[bohr]                   y[bohr]                   z[bohr]                      q[e]
+       -3.5377815279016414        2.3495189088779829        1.0607295254202764        0.1158659338886357
-       -3.2488270479004648       -0.8301123839444932        0.8840522519755615       -0.2341991647481463
+       -6.2149513091670467       -1.1993203144888871        0.2151879841530023        0.0569852111266852
+       -3.9660330045105412       -0.9555218432863416        0.0043515355861044        0.3189271149812888
-       -3.5603503748509917       -0.4836449832641400       -0.5202376650186892       -0.2877498234141676
+       -2.4530883307295670       -1.7261693996919554       -0.6457055460722370        0.5692545008206258
-       -1.6734234404577488       -0.9233227160051019        0.5763130410199597       -0.2058946535748549
-       -2.0472531068058490       -1.3237237941245901       -0.7119544294679337       -0.9992971180892700
+       -1.2628340036417496       -0.7416363692136638       -0.2983506210435199        0.6691943173322236
+       -1.5837691342169131       -3.8885233652849376       -1.1836113644639690        0.0628076875181509
+        1.1135609493575171        3.0715130573939731       -0.1718115736201414        0.7576134719858190
-        1.0525678583050346        2.4058164332486216       -0.0192266279135814       -0.9235083265987739
+        1.1962044482035366        1.6130666210602069       -0.1214886561421062        0.9955526175656415
-        1.1378545303630216        2.6929714589999239       -0.2556675596645878       -0.9936641819349231
-        0.9227800141148492       -0.3899082556528649       -0.3636361747248555       -0.9934394819660318
+        0.9308280129772658        0.4078684949138143       -0.0511792535635360        0.8475065253219278
+        0.8385786343829157       -0.9177537929166294       -0.1830567555144133        0.9207393412409772
-        1.2339921314240518       -0.5778593414230041        0.3729022227399367       -0.6738758902636315
+        5.3235316967371968       -0.1834849170959219        0.6089532737073873        0.1207489421105395
+        2.1132906294825400       -1.3743400056044424        0.2493305106097078        0.4308753055723465
-        2.6991816820381338       -0.8997671841900529       -0.2256732983441107       -0.7095764258838037
+        2.9175529200224521       -0.5058612836768318        0.1853310474783437        0.9977500474782615
-        2.7889103738208938       -0.8625702767416976        0.4338219846484975       -0.9963537733476465
-        3.4138017026847405       -3.6632439814749449       -0.3223112820580380       -0.1586318904925156
+        3.3555246921004982       -3.5673438506554631       -0.0115787338104398        0.3123697133706422
