10
s                      x[A]                      y[A]                      z[A]                      q[e]
C -1.6100449624404449 -0.8271560670565187 0.1055966202287277
C -0.5183675329300422 -0.0935206399634325 -0.0954228108489475
C 0.8543280782644505 -0.5436300072055661 -0.3444539884343462
C 1.9405111490356504 0.0359522601411869 0.1803507174512413
H -2.5594621821286365 -0.3686715504864045 0.3493998666318285
H -1.5643263750369925 -1.9052795043730895 0.0135403913754274
F -0.6246336135819281 1.3043650632897750 0.0775313912163555
H 0.9435230076622405 -1.4627395414241722 -0.9183680423164347
H 1.8742230158170075 0.9412933031748468 0.7745356104674498
H 2.9291859216395326 -0.3737655323574100 0.0066885244471220
