25
s                      x[A]                      y[A]                      z[A]                      q[e]
N       -1.7757002127152919        1.0855787182887759       -1.0009823145880423        0.1158659338886357
O       -1.8495533321138933       -0.0230280229530158        0.2923953582560753       -0.2341991647481463
N       -3.3118808100164303       -0.5157689836958707       -0.1075985471044875        0.0569852111266852
N       -2.1111141721032682       -0.4522709296067930       -0.0350676326596127        0.3189271149812888
O       -1.7898747769705563       -0.4893071506492385       -0.3349567915969843       -0.2877498234141676
N       -1.3823773656670071       -0.7692579876441401        0.2858064441965035        0.5692545008206258
O       -0.7858180237314827       -0.4071909926916609        0.8084684250987967       -0.2058946535748549
O       -1.1596099899938122       -0.5775940454496448        0.1914638515456401       -0.9992971180892700
N       -0.6870206096466365       -0.3081748594609586        0.3157485032562966        0.6691943173322236
N       -0.9715389299228965       -1.7965950004661240        1.1027445813296879        0.0628076875181509
N        0.7052045136670824        1.6072538860224712        0.1120195344659058        0.7576134719858190
O        0.6700018878577870        1.2584417974211941        0.1952171211570208       -0.9235083265987739
N        0.6945715101396686        0.8369651909522674        0.1083565644554462        0.9955526175656415
O        0.6942382896727793        1.4108215090715752        0.0681979896426630       -0.9936641819349231
O        0.4480807052586779       -0.2052456981877668       -0.0031207323078973       -0.9934394819660318
N        0.5203778314296156        0.2078551348075289        0.1646167756405451        0.8475065253219278
N        0.4037506780316770       -0.4817128787261175        0.0956624696895227        0.9207393412409772
O        0.6952130484873632       -0.3305660063098386        0.3276145730547700       -0.6738758902636315
N        2.7725341649135884       -0.2648850978752105       -0.4384542767835520        0.1207489421105395
N        1.0767139446404939       -0.7786999760342745       -0.0123790693536944        0.4308753055723465
O        1.2926247680568417       -0.5218327897652487       -0.3432845806687729       -0.7095764258838037
N        1.4957977448510267       -0.3427641887988218       -0.1707726864811191        0.9977500474782615
O        1.4682296426632369       -0.5412790016758650       -0.0409994387902257       -0.9963537733476465
O        1.4879395946622103       -1.9872408724685469       -0.6532833720163822       -0.1586318904925156
N        1.5286543600977944       -1.9480939786238511       -0.4812735266952591        0.3123697133706422

        RMSE         5.355934077E-01 kcal/mol

Coordinates in bohr
s                   x[bohr]                   y[bohr]                   z[bohr]                      q[e]
+       -3.3555870829491097        2.0514464651913236       -1.8915824309982703        0.1158659338886357
-       -3.4951492521232033       -0.0435166565919565        0.5525471474591067       -0.2341991647481463
+       -6.2585476910904827       -0.9746621231909194       -0.2033317855246549        0.0569852111266852
+       -3.9894276048478199       -0.8546681914630552       -0.0662682215948283        0.3189271149812888
-       -3.3823731273392639       -0.9246565059551953       -0.6329765999803543       -0.2877498234141676
+       -2.6123146231425127       -1.4536869164682467        0.5400959044223376        0.5692545008206258
-       -1.4849808493010224       -0.7694794569405391        1.5277839045169415       -0.2058946535748549
-       -2.1913452934331974       -1.0914945575950699        0.3618142423465753       -0.9992971180892700
+       -1.2982807947772133       -0.5823660831326679        0.5966781956776297        0.6691943173322236
+       -1.8359424977746397       -3.3950725092477536        2.0838852450457659        0.0628076875181509
+        1.3326433932674675        3.0372696586602821        0.2116862408418458        0.7576134719858190
-        1.2661200715909262        2.3781103419549381        0.3689068939870884       -0.9235083265987739
+        1.3125499287096285        1.5816349874412996        0.2047642307163118        0.9955526175656415
-        1.3119202332878106        2.6660662640503938        0.1288755227314426       -0.9936641819349231
-        0.8467498150408924       -0.3878581580032553       -0.0058973293727938       -0.9934394819660318
+        0.9833715831616343        0.3927892785563462        0.3110806216165678        0.8475065253219278
+        0.7629782044477721       -0.9103054118982425        0.1807758681981087        0.9207393412409772
-        1.3137622604857502       -0.6246792183119593        0.6191018177823112       -0.6738758902636315
+        5.2393302451616108       -0.5005602896992392       -0.8285585016565958        0.1207489421105395
+        2.0346944708318948       -1.4715296886053533       -0.0233930507665306        0.4308753055723465
-        2.4427067946108791       -0.9861210559399328       -0.6487138405566154       -0.7095764258838037
+        2.8266480768458875       -0.6477304424444931       -0.3227136071579896        0.9977500474782615
-        2.7745519139123300       -1.0228690706286137       -0.0774777106109986       -0.9963537733476465
-        2.8117983251363099       -3.7553409942814211       -1.2345266554265428       -0.1586318904925156
+        2.8887380810718208       -3.6813640862525752       -0.9094751568872567        0.3123697133706422
