25
s                      x[A]                      y[A]                      z[A]                      q[e]
N        1.9062702214516134        1.2770931193377639        0.3586145017323644        0.1158659338886357
O        1.8181109711799310       -0.2474785473973680       -0.3955431322042833       -0.2341991647481463
N        3.2865971525105726       -0.6591831185733061        0.0743122763422605        0.0569852111266852
N        2.0883750411280748       -0.5386951237012721        0.0593376654063284        0.3189271149812888
O        1.8066315413165257       -0.4287201699852314        0.3661868260578636       -0.2877498234141676
N        1.2979386459243296       -0.9466293759769755       -0.0353526128882124        0.5692545008206258
O        0.8047861173159163       -0.5220663800431897       -0.6226052309478947       -0.2058946535748549
O        1.0951113987256236       -0.7287881925649460        0.0273677386198468       -0.9992971180892700
N        0.6587887631006264       -0.4141944502831011       -0.1352325245039941        0.6691943173322236
N        0.7901397106267585       -2.1287762224460076       -0.3714690213070495        0.0628076875181509
N       -0.5561165376218704        1.6284358527648672       -0.0548588869621263        0.7576134719858190
O       -0.5423547616218461        1.2740491254128266       -0.1337140211242822       -0.9235083265987739
N       -0.6170830047405801        0.8572098246779024       -0.0614606660903738        0.9955526175656415
O       -0.5662007449072504        1.4287983195949310       -0.0059516496945698       -0.9936641819349231
O       -0.4742877293484719       -0.2028023614465988        0.0628356965008427       -0.9934394819660318
N       -0.4948669819677408        0.2173173935774689       -0.1075414484989033        0.8475065253219278
N       -0.4490250920907427       -0.4840443157327777       -0.0334032758943936        0.9207393412409772
O       -0.6954556167427659       -0.3045054979851375       -0.2974423560023933       -0.6738758902636315
N       -2.8398431154282813       -0.0544254505906705        0.1811336755836669        0.1207489421105395
N       -1.1572964240524053       -0.7182213939515982       -0.0366289828295267        0.4308753055723465
O       -1.3889972304219729       -0.4466718953756120        0.2715620027147034       -0.7095764258838037
N       -1.5542563477623053       -0.2464042509521399        0.0796823551403842        0.9977500474782615
O       -1.5248488158567068       -0.4436612938543387       -0.0541809796479201       -0.9963537733476465
O       -1.7588639211892987       -1.8940364122940507        0.5007358132678099       -0.1586318904925156
N       -1.7709577526051044       -1.8525530003021946        0.3311517434018385        0.3123697133706422

        RMSE         3.962536305E-01 kcal/mol

Coordinates in bohr
s                   x[bohr]                   y[bohr]                   z[bohr]                      q[e]
+        3.6023286396593934        2.4133562322550044        0.6776831928916907        0.1158659338886357
-        3.4357318012202200       -0.4676666765071597       -0.7474681906718538       -0.2341991647481463
+        6.2107685029545348       -1.2456755606287420        0.1404298500462113        0.0569852111266852
+        3.9464568749737894       -1.0179862489150304        0.1121319365420140        0.3189271149812888
-        3.4140388227019822       -0.8101637057318127        0.6919928120000263       -0.2877498234141676
+        2.4527485684445631       -1.7888702629095317       -0.0668067561780521        0.5692545008206258
-        1.5208253512976557       -0.9865624775908109       -1.1765533707689413       -0.2058946535748549
-        2.0694606204584756       -1.3772100874151689        0.0517175306646257       -0.9992971180892700
+        1.2449303367893017       -0.7827140737196197       -0.2555524345668135        0.6691943173322236
+        1.4931476539330739       -4.0228040428096454       -0.7019747143621821        0.0628076875181509
+       -1.0509079499431997        3.0772977746019667       -0.1036682719058679        0.7576134719858190
-       -1.0249019623032554        2.4076039174093151       -0.2526828790585760       -0.9235083265987739
+       -1.1661178756342909        1.6198918006929568       -0.1161438263990194        0.9955526175656415
-       -1.0699643399049144        2.7000375125487848       -0.0112469879174017       -0.9936641819349231
-       -0.8962739131338788       -0.3832409207301792        0.1187422572889815       -0.9934394819660318
+       -0.9351630644509078        0.4106703561597442       -0.2032238847979551        0.8475065253219278
+       -0.8485344475099836       -0.9147111893195876       -0.0631230431335113        0.9207393412409772
-       -1.3142206480551912       -0.5754319948880604       -0.5620845909554507       -0.6738758902636315
+       -5.3665257274263736       -0.1028491958710042        0.3422930389506580        0.1207489421105395
+       -2.1869732874307517       -1.3572417320130741       -0.0692187458019028        0.4308753055723465
-       -2.6248243545169689       -0.8440875501990597        0.5131778112116246       -0.7095764258838037
+       -2.9371188260250958       -0.4656365504481257        0.1505778282467929        0.9977500474782615
-       -2.8815466446978517       -0.8383983378509665       -0.1023872127435735       -0.9963537733476465
-       -3.3237711029966164       -3.5792100908804820        0.9462535482845530       -0.1586318904925156
+       -3.3466251321799469       -3.5008178034663411        0.6257861009973612        0.3123697133706422
