21
s                      x[A]                      y[A]                      z[A]                      q[e]
N       -1.7098631084816041        0.6712307451355144       -1.6003575062384687        0.0707249461841811
O       -1.6490083713860146        0.1992342129630510       -0.1003711829401882       -0.3496602100029151
N       -1.4300758290188695       -0.1288249855841615       -0.4692213788151212        0.9824851761690530
N       -3.1150704624027181       -0.3145888782398149        0.0348116991307691        0.1071394941056757
O       -1.4893741894442984       -0.2836160943140327       -0.4846375663301447       -0.8194842575378962
N       -0.6430606582577861       -0.3722193821783160        0.2548382973303275        0.3116552922920345
N       -1.0838906027622550       -0.9939385510065090        1.6135548890548574        0.0918298459672651
N       -1.4245309704960085       -0.5192164597429160        0.5358901915889267        0.5593901217632046
O       -1.0844070185512731       -0.4478698228185178        0.4425994749683209       -0.9963138680841535
N        0.8913166434316915        0.8190050533092466       -0.0519952045971208        0.9989733053171830
O        0.8956728822696545        0.9114743118946992       -0.0712460863070150       -0.8354521971080898
N        0.9078153739356053        1.6898165331119179        0.0483632980331771        0.2899344186932475
O        0.8418618105237179        1.3051737376218147        0.0594005496919684       -0.8678253524624289
N        0.4167120562620621       -0.3927190077397314        0.0363050383205158        0.9219570073558310
O        0.5328054715794678       -0.2645882018977708       -0.1577901976125449       -0.9704818863270434
O        0.8187021531389306       -0.3308234468100790        0.4462998687455266       -0.3320651923316272
N        0.6702045895065976        0.3121825104054339        0.0607932703006096        0.9769593393400061
O        1.1883477511559564       -0.7463154961147924       -0.6622239649282041       -0.1970026432733326
O        1.4608223763829749       -0.7610599551417073        0.3046748254600475       -0.1946060569702309
N        2.6349688223762939       -0.5153673720764901       -0.5058628070669243        0.1283355164991325
N        1.2005310868734511       -2.1275619756296802       -0.1954788899768057        0.1235072004109040

        RMSE         5.534739267E-01 kcal/mol

Coordinates in bohr
s                   x[bohr]                   y[bohr]                   z[bohr]                      q[e]
+       -3.2311729870542196        1.2684422752931066       -3.0242373896113737        0.0707249461841811
-       -3.1161742005068169        0.3764980973213061       -0.1896740466451808       -0.3496602100029151
+       -2.7024516554827200       -0.2434439408701180       -0.8866998981702787        0.9824851761690530
+       -5.8866300354444139       -0.5944868219882498        0.0657845773189919        0.1071394941056757
-       -2.8145093163754673       -0.5359567430255391       -0.9158322704723755       -0.8194842575378962
+       -1.2152085261638468       -0.7033926909041357        0.4815745882323098        0.3116552922920345
+       -2.0482563891780661       -1.8782716469366980        3.0491768287071714        0.0918298459672651
+       -2.6919733914701021       -0.9811769087439111        1.0126856954221957        0.5593901217632046
-       -2.0492322735861723       -0.8463513049843217        0.8363917909615541       -0.9963138680841535
+        1.6843443471482469        1.5476952461204645       -0.0982566965257042        0.9989733053171830
-        1.6925764454890797        1.7224368198711100       -0.1346355906309894       -0.8354521971080898
+        1.7155224292183808        3.1932904498521646        0.0913933878065979        0.2899344186932475
-        1.5908882573718977        2.4664209102453838        0.1122507706194687       -0.8678253524624289
+        0.7874716595116711       -0.7421313688896455        0.0686065794000263        0.9219570073558310
-        1.0068564194305987       -0.4999992376141280       -0.2981802587695795       -0.9704818863270434
-        1.5471228477552128       -0.6251657103510145        0.8433845217568213       -0.3320651923316272
+        1.2665031221923568        0.5899394458241588        0.1148826311390814        0.9769593393400061
-        2.2456517914884686       -1.4103318908421434       -1.2514219274290959       -0.1970026432733326
-        2.7605542093042961       -1.4381948802710471        0.5757519774411556       -0.1946060569702309
+        4.9793694234113302       -0.9739031872214885       -0.9559421624117999        0.1283355164991325
+        2.2686749592890423       -4.0205094488780775       -0.3694015653646661        0.1235072004109040
