21
s                      x[A]                      y[A]                      z[A]                      q[e]
N        1.7484308429629751        0.6685336449157004       -1.6605253838450809        0.0707249461841811
O        1.6209479723982789       -0.1419538665577608       -0.3204042383160361       -0.3496602100029151
N        1.4964496810874401        0.3773968971504753       -0.3080069776097688        0.9824851761690530
N        3.1386266263766580       -0.0934183070143112        0.1002139302993998        0.1071394941056757
O        1.5713213412745279        0.4748058628399481       -0.1600035075693641       -0.8194842575378962
N        0.6873385569059844        0.0053527441537902        0.2820818135563123        0.3116552922920345
N        1.0721325759840135       -0.6899119126181956        1.6729001618726080        0.0918298459672651
N        1.4622028444385904       -0.1098812996212924        0.5992044597227835        0.5593901217632046
O        1.1252767705110618       -0.0985181975320853        0.4729350644763739       -0.9963138680841535
N       -1.0725914804935550       -0.6758811906272676       -0.2337281186940492        0.9989733053171830
O       -1.0942394510101439       -0.7643093085623218       -0.2644719177763449       -0.8354521971080898
N       -1.3130373233422252       -1.5201275404677173       -0.2658030455761837        0.2899344186932475
O       -1.1475188273642682       -1.1731100104430416       -0.1934404822992216       -0.8678253524624289
N       -0.3097210834242765        0.3522697819360534        0.0500501568408918        0.9219570073558310
O       -0.4449862261863486        0.2741704935355180       -0.1687655320892554       -0.9704818863270434
O       -0.7414613544902722        0.3276129915671226        0.4352779049511714       -0.3320651923316272
N       -0.7369462771905594       -0.2633947711528685       -0.0392135668361347        0.9769593393400061
O       -0.9836893639117908        1.0135802078278533       -0.4718986562943395       -0.1970026432733326
O       -1.2507555602473306        0.8765476314007420        0.4872271738077853       -0.1946060569702309
N       -2.4366626295657268        1.1010323629282510       -0.3002643726608933        0.1283355164991325
N       -0.6549358818698278        2.2174997129269096        0.2830251090464429        0.1235072004109040

        RMSE         9.251743261E-01 kcal/mol

Coordinates in bohr
s                   x[bohr]                   y[bohr]                   z[bohr]                      q[e]
+        3.3040554425033872        1.2633454945447460       -3.1379381998379374        0.0707249461841811
-        3.0631477314489222       -0.2682539302439549       -0.6054762598532295       -0.3496602100029151
+        2.8278800577839709        0.7131767762119742       -0.5820488324124844        0.9824851761690530
+        5.9311447339215366       -0.1765350153609841        0.1893768822215856        0.1071394941056757
-        2.9693669900959114        0.8972530435291961       -0.3023628084187167       -0.8194842575378962
+        1.2988816280197208        0.0101152204703090        0.5330573725938875        0.3116552922920345
+        2.0260369387913904       -1.3037445655391826        3.1613231411732969        0.0918298459672651
+        2.7631629158543527       -0.2076455625936156        1.1323323220289869        0.5593901217632046
-        2.1264649116055665       -0.1861724117093965        0.8937177469860862       -0.9963138680841535
+       -2.0269041426321612       -1.2772303436338901       -0.4416821321502529        0.9989733053171830
-       -2.0678128780805003       -1.4443352683208281       -0.4997794924718935       -0.8354521971080898
+       -2.4812809336210209       -2.8726247272497973       -0.5022949594515722        0.2899344186932475
-       -2.1684963075249892       -2.2168566347703216       -0.3655495331220016       -0.8678253524624289
+       -0.5852880229519588        0.6656934101338923        0.0945810889654951        0.9219570073558310
-       -0.8409020970932293        0.5181071444637350       -0.3189206350658574       -0.9704818863270434
-       -1.4011588925976153        0.6190988292037867        0.8225560288207779       -0.3320651923316272
+       -1.3926266330658865       -0.4977439803565615       -0.0741029017226304        0.9769593393400061
-       -1.8589034903191040        1.9153889989792694       -0.8917592193678576       -0.1970026432733326
-       -2.3635854587610230        1.6564349592661607        0.9207259193775539       -0.1946060569702309
+       -4.6046250300171243        2.0806496212000809       -0.5674174295614953        0.1283355164991325
+       -1.2376494464691754        4.1904671407132152        0.5348399427256139        0.1235072004109040
