21
s                      x[A]                      y[A]                      z[A]                      q[e]
N 1.7029702185305997 0.0507613798197303 -1.7881166667781219 0.0707249461841811
O 1.6273685199135590 -0.3856979425376352 -0.2604042169897238 -0.3496602100029151
N 1.4575228595842953 0.1108436715178517 -0.4158933326239318 0.9824851761690530
N 3.1283094353564977 -0.1706244586424085 0.0907037064049528 0.1071394941056757
O 1.5280211798962027 0.2452095178520801 -0.3030463163327484 -0.8194842575378962
N 0.5926426838381371 -0.2508937987913346 0.5338374594759845 0.3116552922920345
N 1.1054305532362092 -0.3061704442923593 1.8083129810860703 0.0918298459672651
N 1.4220400361669761 -0.3071394065409118 0.6878652459384499 0.5593901217632046
O 1.0838513381024635 -0.2358948164351542 0.6082026456917387 -0.9963138680841535
N -1.0107823691537079 0.7727491739591239 0.0238182158933043 0.9989733053171830
O -1.0203878887075828 0.8732034773282438 0.0379043499691751 -0.8354521971080898
N -1.0656554417700996 1.6461533555462493 -0.0680636468560133 0.2899344186932475
O -0.9493630434515966 1.2773909391520673 -0.0453943751206825 -0.8678253524624289
N -0.4225370414435035 -0.3898850246052779 0.1841564416498117 0.9219570073558310
O -0.6288336050493958 -0.2626591627992752 0.2943913063031217 -0.9704818863270434
O -0.5611788221206195 -0.3213641538307009 -0.3746355737580216 -0.3320651923316272
N -0.7074244837994089 0.2941692636719866 0.0360200117190784 0.9769593393400061
O -1.3820196351689129 -0.8418194372475593 0.3967569474532225 -0.1970026432733326
O -1.1387595194885609 -0.8149652600622349 -0.5777994073480301 -0.1946060569702309
N -2.5748158084050243 -0.7369984496008450 -0.4514385286731042 0.1283355164991325
N -1.0002099772415185 -2.1868789608718706 -0.0281431283420154 0.1235072004109040
