21
s                      x[A]                      y[A]                      z[A]                      q[e]
N       -2.2263473400135410        1.7143345688014791        0.0024936996832014        0.0690680479201058
O       -1.9256916613581470       -0.1604430850802245        0.3565786796078302       -0.3117950550350966
N       -2.0457498152975484       -0.2459298273800428        0.0034368972123833        0.5776243102962968
N       -3.3772500776789220       -0.4745162114855653       -0.0154063959140233        0.0604184539076988
O       -1.9094075492907532       -0.1776996895479618       -0.3155260419096820       -0.3968494342195521
O       -0.5493942353447210       -0.9866725118233195       -0.0730688903528500       -0.9828651838991298
N       -0.3280081942757745       -0.9680915369197153       -0.0695852713618343        0.7759263489545838
N       -1.0685084785836259       -1.2534928519239239       -0.0053756907381991        0.9970342621901004
O       -1.0709531296695232       -1.2591048884860947       -0.2860140309766230       -0.3970377457969525
O       -1.1145395349775060       -1.2733819491181253        0.2641495056616794       -0.3893757401670396
N        0.5285891455273166        1.7934910825846475        0.0995369625296757        0.1691966627363242
O        0.5214194398341858        1.3446534648101867        0.0548734149057549       -0.6800109224217911
O        0.7199891627866372       -0.3799564056810544        0.3427625596178985       -0.9821368279659007
N        0.6720436557642097       -0.5518980643562743        0.2204636080002272        0.8921713087406896
O        0.9022636409221674       -0.2962881634568684       -0.3289310378986121       -0.3335771210350215
N        0.6259900048302378        0.2725154458488777        0.0781409755507733        0.9988617281482304
N        2.9677292069987167        0.0928378715181472       -0.0134231869269045        0.0655379221577991
N        1.7033467656288899       -0.3581300049191339       -0.0204327464203439        0.9908754307264420
O        1.5967617936063099       -0.4371348024899787        0.3323751945146282       -0.6595771554465193
O        1.6730604954638166       -0.4256418935506213       -0.3855395493895417       -0.5578053818499882
N        1.6729754513074049       -2.0582828957274852        0.0106706602147625        0.0943160920587207

        RMSE         7.939371485E+00 kcal/mol

Coordinates in bohr
s                   x[bohr]                   y[bohr]                   z[bohr]                      q[e]
+       -4.2071867327671306        3.2396228224396357        0.0047124094403916        0.0690680479201058
-       -3.6390298420447791       -0.3031934895251533        0.6738360466361732       -0.3117950550350966
+       -3.8659068721183036       -0.4647400198294008        0.0064947944527539        0.5776243102962968
+       -6.3820777039943382       -0.8967056817975446       -0.0291138688578766        0.0604184539076988
-       -3.6082573300411420       -0.3358037458245288       -0.5962578046590278       -0.3968494342195521
-       -1.0382046397068458       -1.8645408228636247       -0.1380801910579941       -0.9828651838991298
+       -0.6198456540871778       -1.8294278691518076       -0.1314971052395307        0.7759263489545838
+       -2.0191883872526741       -2.3687581903552797       -0.0101585832303565        0.9970342621901004
-       -2.0238081082773229       -2.3793634024638384       -0.5404881865840290       -0.3970377457969525
-       -2.1061744771026119       -2.4063431369349324        0.4991702218756460       -0.3893757401670396
+        0.9988887179364001        3.3892069545358519        0.1880975985410451        0.1691966627363242
-        0.9853399377762471        2.5410267821391983        0.1036957257404920       -0.6800109224217911
-        1.3605823309644174       -0.7180135463505416        0.6477273637387391       -0.9821368279659007
+        1.2699784537458143       -1.0429361908036574        0.4166158397507228        0.8921713087406896
-        1.7050311743013205       -0.5599034831483637       -0.6215895757909663       -0.3335771210350215
+        1.1829496664031725        0.5149795576114122        0.1476650429670577        0.9988617281482304
+        5.6081954157497176        0.1754381512397400       -0.0253661470226754        0.0655379221577991
+        3.2188588837230054       -0.6767676266060280       -0.0386122947253788        0.9908754307264420
-        3.0174424775107442       -0.8260650566121605        0.6280980885284203       -0.6595771554465193
-        3.1616261277493924       -0.8043466063319490       -0.7285641588786557       -0.5578053818499882
+        3.1614654175852035       -3.8895909616392195        0.0201646253837201        0.0943160920587207
