21
s                      x[A]                      y[A]                      z[A]                      q[e]
N -2.2263473400135410 1.7143345688014793 0.0024936996832014 0.0690680479201058
O -1.9256916613581470 -0.1604430850802245 0.3565786796078302 -0.3117950550350966
N -2.0457498152975484 -0.2459298273800428 0.0034368972123833 0.5776243102962968
N -3.3772500776789220 -0.4745162114855653 -0.0154063959140233 0.0604184539076988
O -1.9094075492907532 -0.1776996895479618 -0.3155260419096821 -0.3968494342195521
O -0.5493942353447210 -0.9866725118233195 -0.0730688903528500 -0.9828651838991298
N -0.3280081942757745 -0.9680915369197153 -0.0695852713618343 0.7759263489545838
N -1.0685084785836259 -1.2534928519239239 -0.0053756907381991 0.9970342621901004
O -1.0709531296695232 -1.2591048884860947 -0.2860140309766230 -0.3970377457969525
O -1.1145395349775060 -1.2733819491181255 0.2641495056616794 -0.3893757401670396
N 0.5285891455273166 1.7934910825846477 0.0995369625296757 0.1691966627363242
O 0.5214194398341858 1.3446534648101869 0.0548734149057549 -0.6800109224217911
O 0.7199891627866372 -0.3799564056810544 0.3427625596178985 -0.9821368279659007
N 0.6720436557642097 -0.5518980643562743 0.2204636080002272 0.8921713087406896
O 0.9022636409221674 -0.2962881634568685 -0.3289310378986121 -0.3335771210350215
N 0.6259900048302378 0.2725154458488777 0.0781409755507733 0.9988617281482304
N 2.9677292069987167 0.0928378715181472 -0.0134231869269045 0.0655379221577991
N 1.7033467656288899 -0.3581300049191340 -0.0204327464203439 0.9908754307264420
O 1.5967617936063099 -0.4371348024899787 0.3323751945146282 -0.6595771554465193
O 1.6730604954638166 -0.4256418935506213 -0.3855395493895417 -0.5578053818499882
N 1.6729754513074049 -2.0582828957274852 0.0106706602147625 0.0943160920587207
