21
s                      x[A]                      y[A]                      z[A]                      q[e]
N -0.1227549045156946 -0.0010499150710281 0.5358714856339133 0.0690680479201058
O -0.1842524896423456 0.3564725762476688 0.2092967980327317 -0.3117950550350966
N -0.3177551244544315 0.0033052828487325 0.1469993560201880 0.5776243102962968
N -0.1750191708020195 0.0150968224448806 -0.3844922882310454 0.0604184539076988
O -0.1911914841082011 -0.3156276529504655 0.2321189727172425 -0.3968494342195521
O -0.5195116965460639 -0.0730003894387911 0.1028797405821547 -0.9828651838991298
N -0.5929717979083754 -0.0695346369086832 0.3125479772730353 0.7759263489545838
N -0.2160013453252210 -0.0052398575616949 -0.3875648269815720 0.9970342621901004
O -0.2184033398566292 -0.2858785736714297 -0.3819531670101345 -0.3970377457969525
O -0.2621809608433736 0.2642750943382209 -0.3678823564224233 -0.3893757401670396
N -0.0839486602547645 -0.1000456108639315 0.5091136895752609 0.1691966627363242
O -0.1083715943141110 -0.0551857575794672 -0.3189519628142002 -0.6800109224217911
O -0.1323606818284782 0.3428036843248854 0.4680236388678494 -0.9821368279659007
N -0.2882760167810712 0.2204834007842657 0.5549022654659264 0.8921713087406896
O 0.0553656348565171 -0.3288943509034519 0.5385731149496260 -0.3335771210350215
N 0.2651854282923853 0.0782888055652231 -0.0578745553980521 0.9988617281482304
N 1.7850599047031943 -0.0135208074851611 0.3658459073303318 0.0655379221577991
N 0.5750166832535060 -0.0204800871165475 -0.2153864800997215 0.9908754307264420
O 0.4438696236512368 0.3323259346431356 -0.2354841728733685 -0.6595771554465193
O 0.5057471115131996 -0.3855941917038603 -0.1894730105556758 -0.5578053818499882
N -0.6545409234320780 0.0103709726218913 0.9591968480284069 0.0943160920587207
