25
s                      x[A]                      y[A]                      z[A]                      q[e]
N 1.6667664015460277 0.6751802800480873 -1.4305532380825241 0.1158659338886357
O 1.7985653346869110 -0.4110667792093922 -0.1690002386105987 -0.2341991647481463
N 3.3538657331699144 -0.0877306927550616 0.0966816595543442 0.0569852111266852
N 2.1416516475356815 -0.1283989201370300 0.1776909295391125 0.3189271149812888
O 1.8912725248907325 0.2797406555957450 0.2259173033503666 -0.2877498234141676
N 1.4031691797882260 -0.2843578066774726 0.7862989432763906 0.5692545008206258
O 1.0003181061728819 -0.2095991550409968 0.0138981741875658 -0.2058946535748549
O 1.1197818625608871 -0.2130219052174217 0.7188031022552931 -0.9992971180892700
N 0.7088453440283470 -0.0510286928118514 0.4129904317961812 0.6691943173322236
N 1.1341226365025003 -0.9338477352439866 1.8331816292504604 0.0628076875181509
N -0.9533908622493966 1.4450089896815688 -0.3465285328738137 0.7576134719858190
O -0.8207655343820789 1.1250761198021713 -0.3120451912716097 -0.9235083265987739
N -0.8075841020992234 0.7090107394099894 -0.1540319648980063 0.9955526175656415
O -0.9144482113516663 1.2770899126040580 -0.2432308447554464 -0.9936641819349231
O -0.4611024392014758 -0.1881052912662217 0.2600067159523962 -0.9934394819660318
N -0.5260492630335397 0.1494599483639200 0.0044876704087542 0.8475065253219278
N -0.3389547640650154 -0.4515257210165707 0.2646780319067441 0.9207393412409772
O -0.5365904962584570 -0.4149140642992246 -0.0788157986826517 -0.6738758902636315
N -2.6430451568259956 -0.8138177175941134 -0.4485347241606816 0.1207489421105395
N -0.8976383375215052 -0.9088750945601568 0.0497729509666720 0.4308753055723465
O -1.2878117985111588 -0.6963203060946701 0.1874985931949792 -0.7095764258838037
N -1.3965481979018806 -0.5896197928442158 -0.0753934241420912 0.9977500474782615
O -1.2847779570411817 -0.7710103821013403 -0.1385284060372456 -0.9963537733476465
O -1.3213484012566732 -2.1495445612343493 0.6048566942000653 -0.1586318904925156
N -1.2986426113853882 -2.1205029824374191 0.4380025556005522 0.3123697133706422
