21
s                      x[A]                      y[A]                      z[A]                      q[e]
N       -2.0073578340797518        1.3868719618574972       -0.1879618213609840        0.0707249461841811
O       -1.6368744113431779       -0.0896388785737674        0.2600368689670868       -0.3496602100029151
N       -1.4903462198573918        0.0920013686252233       -0.2326069193470627        0.9824851761690530
N       -3.0271788730050533       -0.7442967614970358        0.0159804929670949        0.1071394941056757
O       -1.5337883540668169       -0.0322252457943196       -0.3692943016085961       -0.8194842575378962
N       -0.4589866793291947       -0.6801821131460749       -0.0751386323345451        0.3116552922920345
N       -0.6972354123000482       -2.0147809562304237        0.2161756399996889        0.0918298459672651
N       -1.2046977211841883       -1.0628727323426408        0.0348195732766736        0.5593901217632046
O       -0.9139198298478592       -0.8611403617678889        0.0077944548468408       -0.9963138680841535
N        0.6914192287121765        0.8941398188092791       -0.0659995005588351        0.9989733053171830
O        0.6608252216550037        0.9901170425515075       -0.0836651534287765       -0.8354521971080898
N        0.4531346710945561        1.7366228388007019        0.0216084014869953        0.2899344186932475
O        0.4772050319414036        1.3499015917556993        0.0254823505369573       -0.8678253524624289
N        0.5423580874301771       -0.4008149268856729       -0.0604447354734199        0.9219570073558310
O        0.6471257569436047       -0.2204403261648705       -0.2275201537862694       -0.9704818863270434
O        0.8072109984456105       -0.2364219191174760        0.4279007055687020       -0.3320651923316272
N        0.5917188085115750        0.3501942763894233        0.0064990172306736        0.9769593393400061
O        1.5166989036125549       -0.5036210799801789       -0.5486667512833612       -0.1970026432733326
O        1.5617072783747059       -0.4761105629995258        0.4545514222607041       -0.1946060569702309
N        2.7733621597613700        0.0909849546517632       -0.0837870995048755        0.1283355164991325
N        1.7857234990948907       -1.8521354792206530       -0.0541401065034676        0.1235072004109040

        RMSE         2.037926937E+00 kcal/mol

Coordinates in bohr
s                   x[bohr]                   y[bohr]                   z[bohr]                      q[e]
+       -3.7933565422029476        2.6208081789870650       -0.3551963644144888        0.0707249461841811
-       -3.0932443392086069       -0.1693929306975902        0.4913984648693580       -0.3496602100029151
+       -2.8163461876418294        0.1738573898689606       -0.4395633724524063        0.9824851761690530
+       -5.7205390027516341       -1.4065170352946028        0.0301987550576143        0.1071394941056757
-       -2.8984399236030254       -0.0608968888768258       -0.6978650897324669       -0.8194842575378962
+       -0.8673591191655137       -1.2853579092812502       -0.1419914365537603        0.3116552922920345
+       -1.3175839742177613       -3.8073842100635367        0.4085127545949784        0.0918298459672651
+       -2.2765487570012710       -2.0085383703446338        0.0657994572982234        0.5593901217632046
-       -1.7270581790374726       -1.6273194393189852        0.0147293849577765       -0.9963138680841535
+        1.3065929801413012        1.6896793754160235       -0.1247209804731993        0.9989733053171830
-        1.2487786857229206        1.8710500425706238       -0.1581042262247966       -0.8354521971080898
+        0.8563004263181228        3.2817415485484247        0.0408339608193567        0.2899344186932475
-        0.9017868160596078        2.5509443047378526        0.0481546635477625       -0.8678253524624289
+        1.0249082471701465       -0.7574304388093254       -0.1142239957705091        0.9219570073558310
-        1.2228904493530024       -0.4165718434582007       -0.4299507786780961       -0.9704818863270434
-        1.5254077125195684       -0.4467726771871720        0.8086151424150142       -0.3320651923316272
+        1.1181864913691011        0.6617712730788927        0.0122813626506045        0.9769593393400061
-        2.8661455426098894       -0.9517059121698306       -1.0368298940702401       -0.1970026432733326
-        2.9511990442623230       -0.8997185695066390        0.8589776980100655       -0.1946060569702309
+        5.2408949286572080        0.1719366458290326       -0.1583346709106980        0.1283355164991325
+        3.3745283490835831       -3.5000288029706224       -0.1023099736946720        0.1235072004109040
