21
s                      x[A]                      y[A]                      z[A]                      q[e]
N -1.9127325392405132 1.3630567346959064 0.5983444775754936 0.0707249461841811
O -1.5815256880258524 -0.1397368556189009 0.3627432139487636 -0.3496602100029151
N -1.5010766955745780 0.1717805219825490 -0.0387180672857789 0.9824851761690530
N -3.0350502319132056 -0.6666050460769802 0.1196263446724860 0.1071394941056757
O -1.5879864045454410 0.1400741563303808 -0.2101881535233546 -0.8194842575378962
N -0.4996789008464912 -0.6133509521149836 -0.2880749223849571 0.3116552922920345
N -0.7968138753552968 -1.9406553225260996 -0.5307187870760308 0.0918298459672651
N -1.2774711370765814 -0.9378303515286460 -0.2607481713931518 0.5593901217632046
O -0.9537638369972657 -0.7876192549368904 -0.2555114808819201 -0.9963138680841535
N 0.7465409082002965 0.8744132345642255 -0.1493137144691840 0.9989733053171830
O 0.7337043891828064 0.9708168192333837 -0.1644073040484588 -0.8354521971080898
N 0.5535842124919119 1.7279355310063371 -0.0880710651598602 0.2899344186932475
O 0.5628385829118061 1.3419139199000591 -0.0763486612987088 -0.8678253524624289
N 0.5233201420874222 -0.4011707921537025 -0.1607616342082093 0.9219570073558310
O 0.6633143222455770 -0.2437004798235605 -0.3103301871131534 -0.9704818863270434
O 0.7491315092899122 -0.2629421478809115 0.3561978416978024 -0.3320651923316272
N 0.6076254303149646 0.3395690453144419 -0.0895555586847512 0.9769593393400061
O 1.5701699589932918 -0.5850432655850641 -0.3968477285819075 -0.1970026432733326
O 1.4084536835687402 -0.5297205010276410 0.5926325676320380 -0.1946060569702309
N 2.7408349453541905 -0.0439723730066705 0.3056820349236313 0.1283355164991325
N 1.6545466010762460 -1.9242202151976511 0.1638674150870401 0.1235072004109040
