21
s                      x[A]                      y[A]                      z[A]                      q[e]
N 0.0270809386064732 -0.0466701004295573 0.3728485827799681 0.0707249461841811
O 0.1131710622600668 0.2808110555955947 0.3025606819275745 -0.3496602100029151
N 0.3630803629651153 -0.1682009516613006 0.3274571882053131 0.9824851761690530
N 0.0390778453752035 -0.0140026466902479 -0.1877779389574635 0.1071394941056757
O 0.2680771812640232 -0.3376475223614034 0.3125294705219195 -0.8194842575378962
N 0.0883005568551837 0.1263362259047235 0.2883388339069214 0.3116552922920345
N 0.0305717519039839 -0.0092566119315888 0.2506648009164123 0.0918298459672651
N 0.0717026106670538 0.0388309393968631 -0.5501489285076155 0.5593901217632046
O 0.0652765642594653 0.0586806936102204 -0.1938598523676289 -0.9963138680841535
N 0.2176044300431945 0.0839510657495689 -0.4297516941473210 0.9989733053171830
O 0.2035443596406865 0.0979416130883481 -0.3333524057195767 -0.8354521971080898
N 0.0292036206108006 0.0073672948190308 0.4235497297775523 0.2899344186932475
O 0.0396979797252041 -0.0033619083657018 0.0375309543390543 -0.8678253524624289
N -0.0046518299658988 0.0787998868640732 -0.3429854437732367 0.9219570073558310
O 0.1231463685641341 0.2387010286885815 -0.1852981993389381 -0.9704818863270434
O 0.2605344517835692 -0.4191271363925198 -0.2048190699079216 -0.3320651923316272
N 0.0842489792311354 0.0139053971351266 0.3977969432702503 0.9769593393400061
O 0.1983495252073785 -0.5121896482632018 -0.0985502525126607 -0.1970026432733326
O 0.2291150402327404 0.4912520724123989 -0.0775213461236646 -0.1946060569702309
N 0.0211289270696443 -0.0014521613033290 0.1854770368416591 0.1283355164991325
N 0.0339097959729768 0.0027644157126573 -0.1452609346384682 0.1235072004109040
