21
s                      x[A]                      y[A]                      z[A]                      q[e]
N       -1.8470421292997281        0.9537144462942958       -1.5177833360950408        0.0690680479201058
O       -1.8966782133358573        0.1922252442210309        0.2673087909987514       -0.3117950550350966
N       -1.9913801511015745       -0.1433800305731713        0.1097280040241584        0.5776243102962968
N       -3.3489945499459672       -0.2069341303276328        0.0991681123388349        0.0604184539076988
O       -1.8162661335469514       -0.3600953548335670       -0.1078759270718351       -0.3968494342195521
O       -0.8649209434202954        0.1313954170460163        0.5153333991154342       -0.9828651838991298
N       -0.6833469593334354        0.2504368729088123        0.4681191269224320        0.7759263489545838
N       -1.1427588611158039       -0.7474181058269207        1.0752362664935919        0.9970342621901004
O       -1.1179522546522873       -0.9771503399597454        0.9158528226821675       -0.3970377457969525
O       -1.2171399915323968       -0.5425506756006639        1.2415343401588326       -0.3893757401670396
N        1.4361071328054713       -1.4772474951686068       -0.3994607878250233        0.1691966627363242
O        1.2097566571204432       -1.1109576343827448       -0.2682995075625909       -0.6800109224217911
O        0.3743698041632351        0.4402756179612140       -0.2440024152631677       -0.9821368279659007
N        0.2764212220726343        0.5470888305717628       -0.0833264927462598        0.8921713087406896
O        0.7449901248803631        0.4376631676068545        0.3510021242622178       -0.3335771210350215
N        0.7204975607539105       -0.1632161814966979       -0.1005689268646675        0.9988617281482304
N        2.5369442171660954        1.3327587230983839       -0.2597238489981818        0.0655379221577991
N        1.2764796510797241        0.9568976669185341        0.0143982144973432        0.9908754307264420
O        1.0629500814404340        1.0016239948828551       -0.2929781605927520       -0.6595771554465193
O        1.3031386752102196        0.9485341551100404        0.3858782798361574       -0.5578053818499882
N        0.3086753314867829        2.3020733866735608        0.3957812236532328        0.0943160920587207

        RMSE         7.350522733E-01 kcal/mol

Coordinates in bohr
s                   x[bohr]                   y[bohr]                   z[bohr]                      q[e]
+       -3.4904037665589520        1.8022591053888775       -2.8681948230033378        0.0690680479201058
-       -3.5842023713274456        0.3632530659769935        0.5051404059148868       -0.3117950550350966
+       -3.7631630972548029       -0.2709489896430640        0.2073558758987938        0.5776243102962968
+       -6.3286824950487759       -0.3910488323290228        0.1874005726990331        0.0604184539076988
-       -3.4322455633479509       -0.6804815996849984       -0.2038559576956302       -0.3968494342195521
-       -1.6344637032369642        0.2483013523572838        0.9738389876294220       -0.9828651838991298
+       -1.2913386018045609        0.4732571015137443        0.8846169439718288        0.7759263489545838
+       -2.1595012749489686       -1.4124155212213358        2.0319020638326761        0.9970342621901004
-       -2.1126235826309103       -1.8465465259219294        1.7307110060967876       -0.3970377457969525
-       -2.3000612403382901       -1.0252721860673697        2.3461598782511919       -0.3893757401670396
+        2.7138491678188341       -2.7915931853872529       -0.7548714868489129        0.1691966627363242
-        2.2861087604070294       -2.0994056659698987       -0.5070125888884982       -0.6800109224217911
-        0.7074563995097962        0.8320003376633959       -0.4610977387976180       -0.9821368279659007
+        0.5223604049816372        1.0338480560776315       -0.1574642502853794        0.8921713087406896
-        1.4078273021945120        0.8270635219773012        0.6632978843095080       -0.3335771210350215
+        1.3615430638853034       -0.3084338822717766       -0.1900477285054198        0.9988617281482304
+        4.7941297660079281        2.5185489779708314       -0.4908069428563281        0.0655379221577991
+        2.4121969452606473        1.8082745205655968        0.0272086820955751        0.9908754307264420
-        2.0086845389555141        1.8927950310155692       -0.5536484842607026       -0.6595771554465193
-        2.4625751996392555        1.7924697738005111        0.7292042666531133       -0.5578053818499882
+        0.5833118381949289        4.3502882215182090        0.7479181183031818        0.0943160920587207
