21
s                      x[A]                      y[A]                      z[A]                      q[e]
N 2.0564982752184950 1.3355605740292715 -0.1153310158319690 0.0707249461841811
O 1.6086566901558144 -0.1696330681453743 -0.3133254192341588 -0.3496602100029151
N 1.5043774755154666 0.0777381520897274 0.1351187585601603 0.9824851761690530
N 2.9871812971084282 -0.8499451701332723 -0.0628013537377601 0.1071394941056757
O 1.5501045296719937 -0.0328334749434605 0.3092418317377929 -0.8194842575378962
N 0.4422763242353516 -0.6512377692404823 0.1284461140809623 0.3116552922920345
N 0.6011922107776214 -2.0282301001835932 0.0245003402690351 0.0918298459672651
N 1.1759350354046347 -1.0564622183417374 0.0315039650136914 0.5593901217632046
O 0.8918096824417445 -0.8456488984399172 0.0564848567443718 -0.9963138680841535
N -0.6611831858274364 0.9617223987938627 0.1456179711837599 0.9989733053171830
O -0.6258865032467127 1.0562342100276338 0.1598802985038728 -0.8354521971080898
N -0.3956019846431946 1.7960053196945556 0.0577155896149414 0.2899344186932475
O -0.4319597410880978 1.4104810423775453 0.0491901759565233 -0.8678253524624289
N -0.5623608302236813 -0.3391243875522679 0.1317188170965026 0.9219570073558310
O -0.6569383892382812 -0.1560727156739518 0.3003710871861957 -0.9704818863270434
O -0.8277429731220315 -0.1626333316642701 -0.3526244444306862 -0.3320651923316272
N -0.5854525798743194 0.4136193918800364 0.0694363988769865 0.9769593393400061
O -1.5346708410097241 -0.4117582507498363 0.6152654159308885 -0.1970026432733326
O -1.5454201834592423 -0.5609086063590486 -0.4201798419613278 -0.1946060569702309
N -2.7698461390204852 0.1148535810446977 -0.0741635305706284 0.1283355164991325
N -1.8241402892173844 -1.7958339055901806 0.3519997726446538 0.1235072004109040
