21
s                      x[A]                      y[A]                      z[A]                      q[e]
N -1.9712284612756215 1.4556812008556914 -0.7213237523316253 0.0707249461841811
O -1.6955618615069854 0.1569090382747538 0.1757722065040283 -0.3496602100029151
N -1.5219336879526397 0.1955234409394359 -0.3418571716781337 0.9824851761690530
N -3.1131105706044933 -0.4557128030211595 0.0811708927504616 0.1071394941056757
O -1.5676501070870781 0.0408618656126513 -0.4405914061295035 -0.8194842575378962
N -0.6184593833330478 -0.3160602341326127 0.2974185345899866 0.3116552922920345
N -0.8736909883798435 -1.7498461506856997 0.6826928908564436 0.0918298459672651
N -1.4000590430906374 -0.6383743628441579 0.2993341920417489 0.5593901217632046
O -1.0581218989415364 -0.5469452134788404 0.2766798967875030 -0.9963138680841535
N 1.2947143291361261 -0.4867240350144708 -0.0135586194520300 0.9989733053171830
O 1.3445454306198785 -0.5754895278643380 -0.0091653463539164 -0.8354521971080898
N 1.7283331511841580 -1.2318033914511952 -0.1899662864964058 0.2899344186932475
O 1.4637839136045743 -0.9519537194593022 -0.1484765345732258 -0.8678253524624289
N 0.2523257297078463 0.2891727546365945 0.1627894131719194 0.9219570073558310
O 0.4781374329062208 0.2386626022259486 0.2945248171266503 -0.9704818863270434
O 0.4736483669756528 0.3834369919630478 -0.3647479915290751 -0.3320651923316272
N 0.8179048635373263 -0.1830772314341428 -0.0049476430443834 0.9769593393400061
O 0.9213539288536525 1.0399872706820907 0.5730217768702294 -0.1970026432733326
O 0.7896729109108651 1.1077467485117305 -0.4208220147159683 -0.1946060569702309
N 2.1144659592718593 1.5746835435847975 -0.0911964915437310 0.1283355164991325
N 0.0558132317812699 2.1828247289817422 0.2918376306189436 0.1235072004109040
