21
s                      x[A]                      y[A]                      z[A]                      q[e]
N       -1.9712284612756215        1.4556812008556914       -0.7213237523316253        0.0707249461841811
O       -1.6955618615069854        0.1569090382747538        0.1757722065040283       -0.3496602100029151
N       -1.5219336879526397        0.1955234409394359       -0.3418571716781337        0.9824851761690530
N       -3.1131105706044933       -0.4557128030211595        0.0811708927504616        0.1071394941056757
O       -1.5676501070870781        0.0408618656126513       -0.4405914061295035       -0.8194842575378962
N       -0.6184593833330478       -0.3160602341326127        0.2974185345899866        0.3116552922920345
N       -0.8736909883798435       -1.7498461506856997        0.6826928908564436        0.0918298459672651
N       -1.4000590430906374       -0.6383743628441579        0.2993341920417489        0.5593901217632046
O       -1.0581218989415364       -0.5469452134788404        0.2766798967875030       -0.9963138680841535
N        1.2947143291361258       -0.4867240350144708       -0.0135586194520300        0.9989733053171830
O        1.3445454306198785       -0.5754895278643380       -0.0091653463539164       -0.8354521971080898
N        1.7283331511841580       -1.2318033914511952       -0.1899662864964058        0.2899344186932475
O        1.4637839136045743       -0.9519537194593022       -0.1484765345732258       -0.8678253524624289
N        0.2523257297078463        0.2891727546365945        0.1627894131719194        0.9219570073558310
O        0.4781374329062208        0.2386626022259486        0.2945248171266503       -0.9704818863270434
O        0.4736483669756528        0.3834369919630478       -0.3647479915290751       -0.3320651923316272
N        0.8179048635373263       -0.1830772314341428       -0.0049476430443834        0.9769593393400061
O        0.9213539288536525        1.0399872706820907        0.5730217768702294       -0.1970026432733326
O        0.7896729109108651        1.1077467485117305       -0.4208220147159683       -0.1946060569702309
N        2.1144659592718593        1.5746835435847975       -0.0911964915437310        0.1283355164991325
N        0.0558132317812699        2.1828247289817422        0.2918376306189436        0.1235072004109040

        RMSE         1.534936900E+00 kcal/mol

Coordinates in bohr
s                   x[bohr]                   y[bohr]                   z[bohr]                      q[e]
+       -3.7250819225185765        2.7508387955948241       -1.3631043396943443        0.0707249461841811
-       -3.2041475470196583        0.2965151089482645        0.3321613307600307       -0.3496602100029151
+       -2.8760378513384852        0.3694857544826627       -0.6460164284952912        0.9824851761690530
+       -5.8829263767102375       -0.8611723895747022        0.1533907566572827        0.1071394941056757
-       -2.9624293629392136        0.0772177349831740       -0.8325970908151230       -0.8194842575378962
+       -1.1687188542189981       -0.5972672816587162        0.5620395750100805        0.3116552922920345
+       -1.6510366863184620       -3.3067299864825821        1.2901025915157511        0.0918298459672651
+       -2.6457281509118649       -1.2063527112891004        0.5656596429441035        0.5593901217632046
-       -1.9995605963488692       -1.0335766591050737        0.5228492293483198       -0.9963138680841535
+        2.4466554927731425       -0.9197751248550962       -0.0256220774036418        0.9989733053171830
-        2.5408226271073300       -1.0875175957326304       -0.0173199944538655       -0.8354521971080898
+        3.2660763092875578       -2.3277710502528794       -0.3589842545484647        0.2899344186932475
-        2.7661507035634685       -1.7989318138889954       -0.2805799864004672       -0.8678253524624289
+        0.4768265235541276        0.5464573092073789        0.3076274070189248        0.9219570073558310
-        0.9035487985222249        0.4510069545961247        0.5565712415199202       -0.9704818863270434
-        0.8950656933543280        0.7245909011795347       -0.6892738088007638       -0.3320651923316272
+        1.5456161887655053       -0.3459658272175888       -0.0093496903204110        0.9769593393400061
-        1.7411065901479603        1.9652911155515289        1.0828542222079387       -0.1970026432733326
-        1.4922655303145937        2.0933379710535798       -0.7952383553765640       -0.1946060569702309
+        3.9957615646272804        2.9757206316407023       -0.1723363926202824        0.1283355164991325
+        0.1054717222432989        4.1249409176522018        0.5514931949723291        0.1235072004109040
