21
s                      x[A]                      y[A]                      z[A]                      q[e]
N        1.7811197200395410        0.9032662686012797       -1.5212612329199053        0.0707249461841811
O        1.6224780568239878       -0.1224035366063228       -0.3490114493417505       -0.3496602100029151
N        1.5084391174954319        0.3799199315604220       -0.2410459803649258        0.9824851761690530
N        3.1357350095726302       -0.1864896817727528        0.0884062031232743        0.1071394941056757
O        1.5847079306329122        0.4553500972396625       -0.0782300508727789       -0.8194842575378962
N        0.6856619678580891       -0.0905338118611253        0.2495738423341029        0.3116552922920345
N        1.0400266221279926       -1.0206084494789900        1.5063532582730419        0.0918298459672651
N        1.4568402788056158       -0.2709250322431514        0.5441642675042236        0.5593901217632046
O        1.1202559881046561       -0.2236653177389672        0.4235056462889886       -0.9963138680841535
N       -1.1251430203333170       -0.6274231029638621       -0.2433046235987973        0.9989733053171830
O       -1.1541830515933360       -0.7080040523121343       -0.2785480585607082       -0.8354521971080898
N       -1.4271414271073612       -1.4492741413819927       -0.2965753922690304        0.2899344186932475
O       -1.2360298961631317       -1.1141327879439233       -0.2190597928564166       -0.8678253524624289
N       -0.2844984714736016        0.3316346509575484        0.0541193165873748        0.9219570073558310
O       -0.4281996340539037        0.2770255352515571       -0.1668746162535102       -0.9704818863270434
O       -0.7070685275243499        0.3309563113382555        0.4457841169231633       -0.3320651923316272
N       -0.7567096525424204       -0.2478444136345676       -0.0441860490893120        0.9769593393400061
O       -0.9139262423612372        1.0647333113417148       -0.4382100242339558       -0.1970026432733326
O       -1.1768089843110014        0.9120955253688142        0.5198874315270298       -0.1946060569702309
N       -2.3554715511533417        1.2467313015941808       -0.2383035950249396        0.1283355164991325
N       -0.4906836144323424        2.2118078806072430        0.3548590568130237        0.1235072004109040

        RMSE         7.224245676E-01 kcal/mol

Coordinates in bohr
s                   x[bohr]                   y[bohr]                   z[bohr]                      q[e]
+        3.3658284675268533        1.7069258660206461       -2.8747670954949314        0.0707249461841811
-        3.0660391719623403       -0.2313091609734018       -0.6595360539050074       -0.3496602100029151
+        2.8505368089936680        0.7179446202518796       -0.4555108865321949        0.9824851761690530
+        5.9256803701021523       -0.3524144237742874        0.1670635116945830        0.1071394941056757
-        2.9946639777372259        0.8604869749835528       -0.1478333709301853       -0.8194842575378962
+        1.2957133338942566       -0.1710841095112523        0.4716262100896472        0.3116552922920345
+        1.9653654790069242       -1.9286704508434533        2.8465951063270905        0.0918298459672651
+        2.7530291354782386       -0.5119741114703876        1.0283214328433536        0.5593901217632046
-        2.1169770079219425       -0.4226661942901525        0.8003096840712040       -0.9963138680841535
+       -2.1262121604003976       -1.1856578293866271       -0.4597791036593304        0.9989733053171830
-       -2.1810898661565674       -1.3379337545842509       -0.5263795434577274       -0.8354521971080898
+       -2.6969064395279494       -2.7387312079200137       -0.5604462669386904        0.2899344186932475
-       -2.3357579866263967       -2.1054058366067983       -0.4139630135981506       -0.8678253524624289
+       -0.5376241941964836        0.6266986640215672        0.1022706864470853        0.9219570073558310
-       -0.8091800353831433        0.5235023913838059       -0.3153473220100076       -0.9704818863270434
-       -1.3361658689517615        0.6254167879210563        0.8424098920638488       -0.3320651923316272
+       -1.4299739997955274       -0.4683580634940188       -0.0834995313448349        0.9769593393400061
-       -1.7270702969315328        2.0120543550876619       -0.8280969312324142       -0.1970026432733326
-       -2.2238466823259908        1.7236107432026315        0.9824448616537959       -0.1946060569702309
+       -4.4511961279871448        2.3559807120485661       -0.4503285293091504        0.1283355164991325
+       -0.9272576455268732        4.1797111364770156        0.6705864305148946        0.1235072004109040
