21
s                      x[A]                      y[A]                      z[A]                      q[e]
N 1.7811425524559013 0.9036903222947898 -1.5213921176201188 0.0707249461841811
O 1.6222045398017668 -0.1237293175528081 -0.3487501365088177 -0.3496602100029151
N 1.5089310176170185 0.3814530431128582 -0.2414235905124857 0.9824851761690530
N 3.1358997290263595 -0.1859295876219076 0.0883515970133217 0.1071394941056757
O 1.5843452473814290 0.4540973777776259 -0.0778813848324190 -0.8194842575378962
N 0.6859535783903141 -0.0893751963528021 0.2492969026841582 0.3116552922920345
N 1.0400987792772483 -1.0200861847379643 1.5062781635990037 0.0918298459672651
N 1.4572368687854147 -0.2695267840394618 0.5439515117418169 0.5593901217632046
O 1.1199346017929139 -0.2251393205856184 0.4238564458280409 -0.9963138680841535
N -1.1252243428428039 -0.6267212018745146 -0.2435620474040249 0.9989733053171830
O -1.1543733888363017 -0.7088226432732299 -0.2784518455436564 -0.8354521971080898
N -1.4273216849585664 -1.4489655307162828 -0.2966742383341081 0.2899344186932475
O -1.2360747040216171 -1.1148826724146634 -0.2189474910806723 -0.8678253524624289
N -0.2840760743211717 0.3327483930492293 0.0537430298512599 0.9219570073558310
O -0.4287183378914949 0.2759787886392040 -0.1666176893468431 -0.9704818863270434
O -0.7073893231540402 0.3302448740836542 0.4460657704582006 -0.3320651923316272
N -0.7566044462080470 -0.2469315394997672 -0.0444754683598131 0.9769593393400061
O -0.9143609958802963 1.0642656179084462 -0.4380038904607599 -0.1970026432733326
O -1.1771170701295715 0.9117173265801923 0.5200913886978397 -0.1946060569702309
N -2.3552979868445769 1.2469111632374490 -0.2384098822364586 0.1283355164991325
N -0.4902726201647055 2.2120379846238318 0.3546568926441175 0.1235072004109040
