21
s                      x[A]                      y[A]                      z[A]                      q[e]
N -1.9917264891884505 1.4276817187192852 0.0451646356755955 0.0707249461841811
O -1.6341794417043660 -0.0997691893051124 0.2923941209710798 -0.3496602100029151
N -1.5023313200012669 0.1387753112962853 -0.1822537294806154 0.9824851761690530
N -3.0458397566091082 -0.6992483882773441 0.0111253402629329 0.1071394941056757
O -1.5529839312230249 0.0307672973960256 -0.3289753189740331 -0.8194842575378962
N -0.4824181260375096 -0.6553390849434634 -0.1262452710263583 0.3116552922920345
N -0.7287437165642020 -2.0215425235543480 -0.0164269979323503 0.0918298459672651
N -1.2431256772788171 -1.0140027446416342 -0.0398016701058628 0.5593901217632046
O -0.9460771156494752 -0.8211228580522631 -0.0585904534401948 -0.9963138680841535
N 0.7190314352367378 0.8903666975277054 -0.0842972987894883 0.9989733053171830
O 0.6902343676756115 0.9868464515874213 -0.0999222212192191 -0.8354521971080898
N 0.5003029561162722 1.7391219155022146 -0.0064472660520599 0.2899344186932475
O 0.5128825888376151 1.3521005117727474 0.0024815316512200 -0.8678253524624289
N 0.5345994488819923 -0.4052436729622308 -0.0787249406539287 0.9219570073558310
O 0.6486487910122756 -0.2285493566103576 -0.2420292075351321 -0.9704818863270434
O 0.7867526102737337 -0.2458995712743661 0.4184605478933675 -0.3320651923316272
N 0.6021886849219271 0.3445292705390077 -0.0130914556005299 0.9769593393400061
O 1.5283876680320725 -0.5403119651721505 -0.5144279857053976 -0.1970026432733326
O 1.5294559329797504 -0.5027865909129261 0.4896872589220950 -0.1946060569702309
N 2.7806221091285783 0.0277006421356403 0.0000887954746362 0.1283355164991325
N 1.7419365362893069 -1.8921539448542428 0.0047097443956467 0.1235072004109040
