21
s                      x[A]                      y[A]                      z[A]                      q[e]
N       -1.9917609919644741        1.4276610411906219        0.0451706904629342        0.0707249461841811
O       -1.6340948865631968       -0.0997663778562526        0.2923720574150047       -0.3496602100029151
N       -1.5023083788547560        0.1387288330489743       -0.1821769632197662        0.9824851761690530
N       -3.0458595516351576       -0.6992237553703289        0.0111268444101746        0.1071394941056757
O       -1.5528584118542181        0.0307590985680538       -0.3288942048492972       -0.8194842575378962
N       -0.4824196791596700       -0.6553428854789182       -0.1262255641038782        0.3116552922920345
N       -0.7287295912862285       -2.0215398562301794       -0.0164073896987622        0.0918298459672651
N       -1.2431298493821887       -1.0139588395746726       -0.0397883309354139        0.5593901217632046
O       -0.9459972606403175       -0.8210296138700747       -0.0585738101194437       -0.9963138680841535
N        0.7189440858241016        0.8902887963697382       -0.0842566005343307        0.9989733053171830
O        0.6901279298439416        0.9867808932640244       -0.0998869891761634       -0.8354521971080898
N        0.5002764136171338        1.7390609385822822       -0.0064487579896426        0.2899344186932475
O        0.5127897397907328        1.3519595891816472        0.0024824970039565       -0.8678253524624289
N        0.5345987949806511       -0.4052245797055295       -0.0786960527379228        0.9219570073558310
O        0.6485783696509331       -0.2284869083347950       -0.2419568984467090       -0.9704818863270434
O        0.7867048674207139       -0.2458620286554957        0.4184362026585029       -0.3320651923316272
N        0.6021549238845654        0.3445007421801695       -0.0130869946380421        0.9769593393400061
O        1.5283203978459676       -0.5402824193869722       -0.5144079624897060       -0.1970026432733326
O        1.5293962143002628       -0.5027651803815281        0.4896797130696367       -0.1946060569702309
N        2.7806340491071602        0.0276363780339576        0.0000874767187514        0.1283355164991325
N        1.7419690298790393       -1.8921583917497489        0.0046972839919500        0.1235072004109040

        RMSE         3.875043767E-01 kcal/mol

Coordinates in bohr
s                   x[bohr]                   y[bohr]                   z[bohr]                      q[e]
+       -3.7638827821830660        2.6978883678362426        0.0853602338727755        0.0707249461841811
-       -3.0879917986155192       -0.1885311306772579        0.5525031152509905       -0.3496602100029151
+       -2.8389513920160292        0.2621595001669240       -0.3442645668529620        0.9824851761690530
+       -5.7558403692002242       -1.3213413980640438        0.0210266885758113        0.1071394941056757
-       -2.9344771100178679        0.0581262721595837       -0.6215199714153956       -0.8194842575378962
+       -0.9116410711430117       -1.2384185718224292       -0.2385317461877504        0.3116552922920345
+       -1.3770993470477912       -3.8201566799724320       -0.0310054729643186        0.0918298459672651
+       -2.3491749537139772       -1.9161045092831617       -0.0751890484570136        0.5593901217632046
-       -1.7876757380435464       -1.5515211111048330       -0.1106884592503189       -0.9963138680841535
+        1.3586074217251998        1.6824019977022988       -0.1592218992719887        0.9989733053171830
-        1.3041527789342235        1.8647456341036395       -0.1887590530395192       -0.8354521971080898
+        0.9453854087626442        3.2863488894021500       -0.0121863864497825        0.2899344186932475
-        0.9690321681492694        2.5548333562397914        0.0046912394447473       -0.8678253524624289
+        1.0102453095132096       -0.7657634749472071       -0.1487139868292598        0.9219570073558310
-        1.2256354895362127       -0.4317776800053501       -0.4572322722294926       -0.9704818863270434
-        1.4866567409897600       -0.4646118988083514        0.7907298240011392       -0.3320651923316272
+        1.1379078912377332        0.6510120527374780       -0.0247308356712348        0.9769593393400061
-        2.8881069838796267       -1.0209858030411243       -0.9720901658603279       -0.1970026432733326
-        2.8901399823395058       -0.9500884963374912        0.9253605468943856       -0.1946060569702309
+        5.2546368079353858        0.0522251855837986        0.0001653070407939        0.1283355164991325
+        3.2918443855008488       -3.5756611463937684        0.0088765802782828        0.1235072004109040
