25
s                      x[A]                      y[A]                      z[A]                      q[e]
N 0.0653702941748979 -0.0035741469568267 0.2443855220318810 0.1158659338886357
O -0.1738644054985840 0.4400598830072012 0.3070548514904496 -0.2341991647481463
N -0.0838815677788260 -0.0061522141602067 -0.3910042652820122 0.0569852111266852
N -0.5105810871060330 -0.0325443566243783 0.1396230418977328 0.3189271149812888
O -0.2397786568050208 -0.3395387039225055 0.2739763522161612 -0.2877498234141676
N 0.0398295450727359 0.1148469832213286 -0.5524047091952783 0.5692545008206258
O -0.1602595626815701 -0.4970909576558944 0.0424188754751054 -0.2058946535748549
O -0.0730353289711464 0.1671659520674197 -0.2748227184325608 -0.9992971180892700
N -0.1841798974329989 -0.0182173322435908 0.2438924571783646 0.6691943173322236
N 0.0174695157697287 -0.0207941107368871 0.3799640466340218 0.0628076875181509
N 0.0594903294620686 0.0046346345886445 0.2967992824856729 0.7576134719858190
O 0.0359242106617064 -0.0753693170949180 -0.0568127605012680 -0.9235083265987739
N 0.1083568225371118 -0.0099231338760692 -0.4751788371726930 0.9955526175656415
O 0.0693340123620221 0.0517240803423142 0.0967132016367681 -0.9936641819349231
O -0.0430827512049850 0.1161404963772174 -0.1240305954354961 -0.9934394819660318
N -0.0259104014870990 -0.0526840894104169 0.2968682705369792 0.8475065253219278
N -0.0780175873135228 0.0198629999220944 -0.4042222769715811 0.9207393412409772
O 0.1556572457212734 -0.2567497116636300 -0.2265700701794254 -0.6738758902636315
N -0.0645018169904803 0.0228428927256092 0.2205344431936975 0.1207489421105395
N 0.2613488296537521 0.0756594878361554 -0.4891270993442469 0.4308753055723465
O 0.3494928680223045 -0.2119454837840777 -0.1259190512240154 -0.7095764258838037
N 0.4479959727191002 -0.0079055227793103 0.1040816815977352 0.9977500474782615
O 0.3051744917834116 0.1261763710146559 -0.0349097089554382 -0.9963537733476465
O -0.0341341466486262 -0.3707244929617671 -0.1403154662933161 -0.1586318904925156
N -0.0307545437530930 -0.2017089591535967 -0.0950582171843181 0.3123697133706422
