25
s                      x[A]                      y[A]                      z[A]                      q[e]
N 1.8876369396265056 1.2196805056351971 -0.9023442845377659 0.1158659338886357
O 1.7951301203533463 -0.3763101851727864 -0.4076070821913935 -0.2341991647481463
N 3.3590548639272049 -0.4181875370130724 0.0328045935772148 0.0569852111266852
N 2.1572691514821649 -0.3325569254997647 0.0832671233038633 0.3189271149812888
O 1.9286803065980831 -0.0222492189960631 0.2791309604892168 -0.2877498234141676
N 1.4218498381231746 -0.6553097143124900 0.2259610076863282 0.5692545008206258
O 0.6955825352768950 -0.6402669724918522 0.7294917795734476 -0.2058946535748549
O 1.1319816126146010 -0.6331814012846406 0.1375442130278541 -0.9992971180892700
N 0.5887360050651033 -0.5747103353529569 0.2184909430315062 0.6691943173322236
N 0.9265701720993001 -1.7502120764677200 1.0098702152676600 0.0628076875181509
N -1.6431865046787721 -1.1525730484769208 -0.2307189085111639 0.7576134719858190
O -1.4101653536664009 -0.9132003233834812 -0.0935581411258052 -0.9235083265987739
N -1.1678733231831726 -0.5591927284678252 -0.0985801201143432 0.9955526175656415
O -1.5140958909713271 -0.9953734448217059 -0.2455867424638245 -0.9936641819349231
O -0.3327174116265685 0.1261923732876706 -0.0355791748962913 -0.9934394819660318
N -0.6523890139882349 -0.1868657910108065 0.0567801984860617 0.8475065253219278
N -0.1378449434875079 0.2903358771226969 0.1007786126709834 0.9207393412409772
O -0.4724503315284349 0.3151855360824101 0.3272018008443386 -0.6738758902636315
N -2.1548291870071732 1.6477105739395697 -0.0908634355505655 0.1207489421105395
N -0.5043999292503962 0.9370226639749157 0.2077477642979899 0.4308753055723465
O -0.8127223910162757 0.9664707615708268 -0.1418864456950403 -0.7095764258838037
N -1.0933354682894212 0.8928867862239314 0.0022170956179114 0.9977500474782615
O -0.9554126526847676 0.9921041215379953 0.1780857890916180 -0.9963537733476465
O -0.0895238192389470 2.2847177126921538 -0.0165005986942374 -0.1586318904925156
N -0.1540634660231420 2.2274621522301756 0.1358899061590694 0.3123697133706422
