25
s                      x[A]                      y[A]                      z[A]                      q[e]
N 0.0672144595521644 -0.0029225460774497 0.2415118002968022 0.1158659338886357
O -0.1686969383688365 0.4429466965970399 0.3017129473595576 -0.2341991647481463
N -0.0816117882040037 -0.0054149347983010 -0.3914214029554172 0.0569852111266852
N -0.5173207364394284 -0.0350872081540551 0.1469177777101463 0.3189271149812888
O -0.2331147355450726 -0.3377460651079944 0.2674621297179002 -0.2877498234141676
N 0.0293184585339562 0.1219212605871585 -0.5561347399968761 0.5692545008206258
O -0.1557406880295694 -0.4998371999170502 0.0442012047598458 -0.2058946535748549
O -0.0627711986960263 0.1590880967143272 -0.2689607486637699 -0.9992971180892700
N -0.1912804044300257 -0.0127677515868660 0.2399969904635454 0.6691943173322236
N 0.0171698742938121 -0.0219063005161560 0.3835040162337507 0.0628076875181509
N 0.0565404815327492 0.0049869984783299 0.2936117097060135 0.7576134719858190
O 0.0381999340327465 -0.0758249544320561 -0.0578769629873462 -0.9235083265987739
N 0.1043971886742238 -0.0090026678833710 -0.4764516051540104 0.9955526175656415
O 0.0715014676699974 0.0508605074962716 0.0954477763393506 -0.9936641819349231
O -0.0396604926181672 0.1132262054441396 -0.1278651118839771 -0.9934394819660318
N -0.0298158552750836 -0.0508093368350128 0.2984223796364240 0.8475065253219278
N -0.0815735515988103 0.0223969063851212 -0.3989834418423610 0.9207393412409772
O 0.1572988475239837 -0.2576140680519651 -0.2305210943247806 -0.6738758902636315
N -0.0645059451698192 0.0232346059266992 0.2205755215820432 0.1207489421105395
N 0.2653312978289595 0.0744619215168141 -0.4878959142783910 0.4308753055723465
O 0.3467039681503202 -0.2105640633632317 -0.1269074267240483 -0.7095764258838037
N 0.4510042565715986 -0.0081683760770878 0.1034869455741872 0.9977500474782615
O 0.3026869622477928 0.1261686379046867 -0.0370553146688204 -0.9963537733476465
O -0.0328819787596008 -0.3696462331024842 -0.1423898471161150 -0.1586318904925156
N -0.0323925427057573 -0.2024191423970776 -0.0904158943431675 0.3123697133706422
