25
s                      x[A]                      y[A]                      z[A]                      q[e]
N       -1.6769790328279901        0.5612672755390036       -1.5041674525044695        0.1158659338886357
O       -1.8389765744681696        0.2255013318864769        0.1433220357568974       -0.2341991647481463
N       -3.3515994691628532       -0.2822161517447526       -0.0176883664731081        0.0569852111266852
N       -2.1461563252388736       -0.2979869522676034        0.0764048674976182        0.3189271149812888
O       -1.8504066613976009       -0.4893722262139500       -0.1815881033326386       -0.2877498234141676
N       -1.4637696272099503       -0.4701315016222024        0.4710872424178777        0.5692545008206258
O       -0.7655957869450706       -0.2040756059536105        0.9374155288601422       -0.2058946535748549
O       -1.2122435554764126       -0.3321636743253029        0.3668331495571754       -0.9992971180892700
N       -0.7067806535349463       -0.1173755805731799        0.4274389486476871        0.6691943173322236
N       -1.1264249703631251       -1.0306239952113696        1.7420637502518317        0.0628076875181509
N        0.9228785086226977        1.5713918273202638        0.0435563765506976        0.7576134719858190
O        0.8503120150190002        1.2332258192834988        0.1314909654973339       -0.9235083265987739
N        0.8058917860836651        0.8091233491976657        0.0638031352279005        0.9955526175656415
O        0.8830328856779032        1.3795608518859681       -0.0027234348959572       -0.9936641819349231
O        0.4101729376675798       -0.1979053568527205        0.0026260576503239       -0.9934394819660318
N        0.5517387172968342        0.2098957783960844        0.1532614442557490        0.8475065253219278
N        0.3356479341289255       -0.4560801602039972        0.1118762774532905        0.9207393412409772
O        0.6663218088057122       -0.3517522493654272        0.3144176948792963       -0.6738758902636315
N        2.6929613975866400       -0.5918708866055965       -0.4984280608225930        0.1207489421105395
N        0.9627381920172375       -0.8477296003101382        0.0108415167511118        0.4308753055723465
O        1.1947071082559726       -0.6411152579800158       -0.3399288415948931       -0.7095764258838037
N        1.4302522646362090       -0.4815071727390213       -0.1817212033722875        0.9977500474782615
O        1.3780213063514415       -0.6717408372220489       -0.0424998760221380       -0.9963537733476465
O        1.1765113228955493       -2.1317830676687977       -0.5799748133413009       -0.1586318904925156
N        1.2325236762650302       -2.0887424050738175       -0.4172617418807194        0.3123697133706422

        RMSE         7.624302838E-01 kcal/mol

Coordinates in bohr
s                   x[bohr]                   y[bohr]                   z[bohr]                      q[e]
+       -3.1690310901800536        1.0606414339505925       -2.8424645320610429        0.1158659338886357
-       -3.4751620768774436        0.4261357581914118        0.2708393953236100       -0.2341991647481463
+       -6.3336050789476319       -0.5333112349782299       -0.0334261682409047        0.0569852111266852
+       -4.0556476771204668       -0.5631137287456450        0.1443842742223928        0.3189271149812888
-       -3.4967618107642435       -0.9247794809499597       -0.3431517829400230       -0.2877498234141676
+       -2.7661237061903088       -0.8884197810161951        0.8902258693669488        0.5692545008206258
-       -1.4467663601305452       -0.3856470041391749        1.7714586152968774       -0.2058946535748549
-       -2.2908083172016629       -0.6276983733005904        0.6932141864021731       -0.9992971180892700
+       -1.3356218659531458       -0.2218077010999185        0.8077425482977614        0.6691943173322236
+       -2.1286346948632571       -1.9475970892746486        3.2920233810639274        0.0628076875181509
+        1.7439876283678695        2.9695001894180186        0.0823096226981320        0.7576134719858190
-        1.6068568295720940        2.3304590492891619        0.2484819127619858       -0.9235083265987739
+        1.5229147624541732        1.5290215316967661        0.1205704515262823        0.9955526175656415
-        1.6686903137039493        2.6069921834677712       -0.0051465460738739       -0.9936641819349231
-        0.7751145162662109       -0.3739869232126404        0.0049625297487755       -0.9934394819660318
+        1.0426350685024186        0.3966455360583875        0.2896221552354875        0.8475065253219278
+        0.6342826700793787       -0.8618665940404852        0.2114155243224516        0.9207393412409772
-        1.2591657300624703       -0.6647154153144046        0.5941633323196343       -0.6738758902636315
+        5.0889595078688989       -1.1184738773164835       -0.9418925281977374        0.1207489421105395
+        1.8193115134310089       -1.6019767730299908        0.0204874974441646        0.4308753055723465
-        2.2576692347414853       -1.2115322524344712       -0.6423724127584852       -0.7095764258838037
+        2.7027850704782677       -0.9099166839202639       -0.3434033055622469        0.9977500474782615
-        2.6040828640498446       -1.2694062096354202       -0.0803131260477530       -0.9963537733476465
-        2.2232841837726700       -4.0284861567823604       -1.0959935568785835       -0.1586318904925156
+        2.3291321912833540       -3.9471510922196105       -0.7885104147860361        0.3123697133706422
