25
s                      x[A]                      y[A]                      z[A]                      q[e]
N -1.6768968044431625 0.5612515136970151 -1.5041671179468306 0.1158659338886357
O -1.8391422876555763 0.2255127462490541 0.1434481649570676 -0.2341991647481463
N -3.3515562459962367 -0.2822910552038427 -0.0177204510806062 0.0569852111266852
N -2.1460362196180407 -0.2981640067723975 0.0762273825158519 0.3189271149812888
O -1.8504968429218933 -0.4891900837923079 -0.1814416788286727 -0.2877498234141676
N -1.4637185698489699 -0.4702490716365413 0.4707484448115572 0.5692545008206258
O -0.7656569061793830 -0.2042134263316766 0.9376785398939551 -0.2058946535748549
O -1.2123617526324639 -0.3321640597205923 0.3671647423504331 -0.9992971180892700
N -0.7067008272206008 -0.1172339500947075 0.4271903231179461 0.6691943173322236
N -1.1264404080627459 -1.0306231973670710 1.7418903905329080 0.0628076875181509
N 0.9229470961401370 1.5717090446241193 0.0436604048634356 0.7576134719858190
O 0.8503166651430742 1.2329730811909099 0.1314160239687918 -0.9235083265987739
N 0.8060260486978948 0.8094650764621434 0.0638299665731844 0.9955526175656415
O 0.8830532512763096 1.3793628111310630 -0.0028388314496816 -0.9936641819349231
O 0.4101525933027999 -0.1981260551581622 0.0027464348056560 -0.9934394819660318
N 0.5518514621486332 0.2101861805710189 0.1531872174162549 0.8475065253219278
N 0.3356798847699132 -0.4559545135192752 0.1116674385657447 0.9207393412409772
O 0.6662842368392234 -0.3520141118415090 0.3146350584293945 -0.6738758902636315
N 2.6929913123117406 -0.5917711114057995 -0.4984340005587096 0.1207489421105395
N 0.9627473636416832 -0.8476022298279261 0.0106785235920356 0.4308753055723465
O 1.1947118092962650 -0.6412915752892570 -0.3398619775590280 -0.7095764258838037
N 1.4303459275152761 -0.4812931608775537 -0.1818174984868317 0.9977500474782615
O 1.3780186490408275 -0.6719740395545595 -0.0423627904363998 -0.9963537733476465
O 1.1766035291903940 -2.1318251086681834 -0.5799208761449626 -0.1586318904925156
N 1.2323999279587603 -2.0887228274867446 -0.4173884956174379 0.3123697133706422
