21
s                      x[A]                      y[A]                      z[A]                      q[e]
N 1.7198905813875571 0.3135075470495971 -1.7695039386984353 0.0707249461841811
O 1.6252075917625304 -0.1743491163514849 -0.2705549526908232 -0.3496602100029151
N 1.4766739611663906 0.3391524960436648 -0.3881638067441240 0.9824851761690530
N 3.1362671212495030 0.0199330996550106 0.1074355216204002 0.1071394941056757
O 1.5523529988976921 0.4615747915992186 -0.2655093828014503 -0.8194842575378962
N 0.6792837987444322 0.1225413619862647 0.2992320030822173 0.3116552922920345
N 1.0981782057015297 -0.2291954421706321 1.7991386184515172 0.0918298459672651
N 1.4579001178525517 0.0886321743593267 0.6269435989355510 0.5593901217632046
O 1.1265903891623121 0.0546014425010002 0.5050039008862234 -0.9963138680841535
N -1.0213120708910495 -0.7238726315081672 -0.2001805144865299 0.9989733053171830
O -1.0303788908262339 -0.8229868585011547 -0.2219959912936946 -0.8354521971080898
N -1.1940914548573489 -1.5866642515853548 -0.1950716970760190 0.2899344186932475
O -1.0526144486963700 -1.2315185430927353 -0.1327875096801935 -0.8678253524624289
N -0.3421851806007041 0.3733026829017604 0.0432623109464365 0.9219570073558310
O -0.4642340224000046 0.2663220455930955 -0.1678197605553725 -0.9704818863270434
O -0.7703675915122903 0.3236558597207109 0.4310253642387107 -0.3320651923316272
N -0.7203745969364461 -0.2777085560806100 -0.0214884271613100 0.9769593393400061
O -1.0504691604820167 0.9422243837933292 -0.5283662999845217 -0.1970026432733326
O -1.3201821034608623 0.8424978527455180 0.4344245738772336 -0.1946060569702309
N -2.5101101022704588 0.9329708353705825 -0.3781127250998050 0.1283355164991325
N -0.8249707581105630 2.2134167913918348 0.1555215348170091 0.1235072004109040
