25
s                      x[A]                      y[A]                      z[A]                      q[e]
N 0.0632222956441282 -0.0062169442195234 0.2426929766020463 0.1158659338886357
O -0.1732792791100410 0.4483896180335483 0.3104665602945903 -0.2341991647481463
N -0.0848302288806328 -0.0023535824008121 -0.3923420703874086 0.0569852111266852
N -0.5139509620958291 -0.0427797754570698 0.1382950104686032 0.3189271149812888
O -0.2307595603098826 -0.3322605239558165 0.2748547710894580 -0.2877498234141676
N 0.0319824646560605 0.1294425096500608 -0.5563098312749655 0.5692545008206258
O -0.1563111417824863 -0.5003161200600633 0.0447175145689008 -0.2058946535748549
O -0.0701549400724046 0.1496780862966361 -0.2633269141165329 -0.9992971180892700
N -0.1860415102138174 -0.0101250279939728 0.2390850679048850 0.6691943173322236
N 0.0183610235827003 -0.0297049599325233 0.3856481439197116 0.0628076875181509
N 0.0567331978225994 0.0031752602345253 0.2858044055583359 0.7576134719858190
O 0.0322023420577250 -0.0729740952456100 -0.0576901247817233 -0.9235083265987739
N 0.1024993842617235 -0.0108145250796071 -0.4826832940148865 0.9955526175656415
O 0.0647044209757455 0.0515132310626461 0.0935254447550845 -0.9936641819349231
O -0.0405402597075550 0.1104414850714887 -0.1210610946292753 -0.9934394819660318
N -0.0312340556108553 -0.0514891653986586 0.2938080315231394 0.8475065253219278
N -0.0835570243148805 0.0240438605723508 -0.4001883173038203 0.9207393412409772
O 0.1566912801797349 -0.2559856333178238 -0.2266627000711118 -0.6738758902636315
N -0.0658671568665266 0.0237594455469215 0.2187577509065839 0.1207489421105395
N 0.2661946019338186 0.0731608465579307 -0.4897507327357671 0.4308753055723465
O 0.3496725184059648 -0.2083263475607824 -0.1253377359358360 -0.7095764258838037
N 0.4500736342586007 -0.0075502083839351 0.0983305467169431 0.9977500474782615
O 0.3058349567857729 0.1250597624063587 -0.0372181502387234 -0.9963537733476465
O -0.0325889010453092 -0.3667801186556949 -0.1407451706366978 -0.1586318904925156
N -0.0313290613595893 -0.2032418845308447 -0.0884226824275411 0.3123697133706422
