25
s                      x[A]                      y[A]                      z[A]                      q[e]
N 0.0654273145053330 -0.0046451747236499 0.2433684734855212 0.1158659338886357
O -0.1739136422298628 0.4407399407907859 0.3076243668168915 -0.2341991647481463
N -0.0841994340207236 -0.0052591475387928 -0.3910665893482811 0.0569852111266852
N -0.5102623114165376 -0.0343383470393358 0.1396895313652189 0.3189271149812888
O -0.2377235316788120 -0.3377538392778656 0.2738725178216008 -0.2877498234141676
N 0.0394649816825383 0.1172337338958386 -0.5521115459683114 0.5692545008206258
O -0.1597043479307579 -0.4974758238628860 0.0423820309410607 -0.2058946535748549
O -0.0743755844296564 0.1634528537280314 -0.2721333218080101 -0.9992971180892700
N -0.1839362589865227 -0.0171809544232737 0.2437657607056727 0.6691943173322236
N 0.0177562655802460 -0.0230482639406140 0.3805408687386501 0.0628076875181509
N 0.0579984747197843 0.0031370102802028 0.2928720760071771 0.7576134719858190
O 0.0338853313688666 -0.0733319641708078 -0.0584856420872606 -0.9235083265987739
N 0.1066524970139067 -0.0111062198922406 -0.4770387465747238 0.9955526175656415
O 0.0669125238010962 0.0526319493779003 0.0941728590980862 -0.9936641819349231
O -0.0435023995498670 0.1152896026625366 -0.1224492268381258 -0.9934394819660318
N -0.0267751062034376 -0.0530749505355294 0.2963176840482500 0.8475065253219278
N -0.0786828238153515 0.0201904863258074 -0.4034990412483217 0.9207393412409772
O 0.1550574600497470 -0.2556828457427484 -0.2259264226546296 -0.6738758902636315
N -0.0650927592101415 0.0232166281681421 0.2199364292745662 0.1207489421105395
N 0.2619964076643340 0.0750728200387944 -0.4893549381162214 0.4308753055723465
O 0.3506984069943921 -0.2110939314517443 -0.1265100201226354 -0.7095764258838037
N 0.4480540042621343 -0.0074192776270110 0.1023309717843408 0.9977500474782615
O 0.3063931556035285 0.1253475204116864 -0.0365663629442520 -0.9963537733476465
O -0.0338293105590290 -0.3694499133792228 -0.1390607958704010 -0.1586318904925156
N -0.0299411489387890 -0.2018241168442584 -0.0937548783831312 0.3123697133706422
