24
s                      x[A]                      y[A]                      z[A]                      q[e]
N 1.2731768654597038 -0.8287854963263057 -0.3743832968873153 0.6959175615854226
O 1.4971138801571182 -0.8169446309824631 -0.5880975524601521 -0.4294665048044459
N 0.5889902366532219 -1.8522103666012224 -0.0594258070616996 0.7289443612696791
O 0.6632656108302194 -1.6943681170925389 -0.1414812924877967 -0.8899528116456963
N 2.0481677165770398 -1.1859376226903411 0.1582855967134983 0.4821174903544280
O 1.7833654012036950 -1.1494790057204090 0.1264245223706879 -0.6035297564939646
N 1.3709623800452999 -1.3500898291989276 -1.7892129672066608 0.0604057803354635
N 1.1613540497499228 1.1906853348410604 0.8100200453966429 0.6991174418445399
O 0.8157238131319021 1.3221167631160231 0.6828100475179332 -0.4131324281244263
O 1.2598149447931695 0.9668509901399085 0.7483687320370601 -0.9286014603942530
O 0.0490358536596613 0.2611936983343106 -0.2583706080601452 -0.1057946580878595
N 0.7912676754829207 0.0520030570788567 -0.1265392230267639 0.9961038253671308
O 0.8944321383855839 -0.0289441113797203 -0.4485493860399101 -0.3737552305035935
N -0.4024130861414086 0.1797415397929192 -0.4176777865434488 0.9714181100989372
O -0.6627079368805003 0.3992588718694970 -0.7829662013840794 -0.9973398242463560
N -0.8910229099632320 0.4115095001886433 -0.5919280508813087 0.7637225416907655
O -0.8648886385106824 0.2496633890407051 -0.4238953884735632 -0.9974375214017446
O -2.1189888965409396 0.2369139864009326 0.0599705494195675 -0.4871145088925188
N -1.3854928054895055 0.3226157027746261 0.1755504549981925 0.4662300369825688
N -2.3495256296855946 0.2065242672832515 -0.0145787151034104 0.6223673236702755
N -2.0682864697484158 -0.9072304971687701 0.3456135647020848 0.9509229066582735
O -2.0574704572484324 -0.8399457165123706 0.2820682682656814 -0.9922381659518612
O -1.7940400839329764 0.4931284061839236 0.7511532226339075 -0.6086911331096487
N -1.8433605103988271 0.6954428118658713 1.0548717727883090 0.3897866237988844
