24
s                      x[A]                      y[A]                      z[A]                      q[e]
N 1.4144041831597198 -0.6710663133216626 -0.0649126289613195 0.6959175615854226
O 1.6387913533684062 -0.7070545022628236 -0.2692407722732561 -0.4294665048044459
N 0.9178906335645057 -1.5733315815605700 0.6802251805913750 0.7289443612696791
O 0.9655265222725790 -1.4555134558623892 0.5500004156967612 -0.8899528116456963
N 2.2289808369525521 -0.6249955542966947 0.5320280305160459 0.4821174903544280
O 1.9579152249485703 -0.6573194677241357 0.5052377476246934 -0.6035297564939646
N 1.6421277844607554 -1.7057437381271774 -1.1360852717738676 0.0604057803354635
N 0.9077776394713392 1.6107315795605417 0.1830566704860562 0.6991174418445399
O 0.5368679349177929 1.6074190076823447 0.0326474228828660 -0.4131324281244263
O 1.0376320424964227 1.3982736802691020 0.2183672891744890 -0.9286014603942530
O 0.0073242681841623 0.1359349312609818 -0.3436190305561170 -0.1057946580878595
N 0.7760694110258483 0.1288292758368628 -0.1805573875140943 0.9961038253671308
O 0.8974860424340335 -0.0491453924681685 -0.4389325913670405 -0.3737552305035935
N -0.4118183790414579 -0.0924960110059190 -0.4430588510621778 0.9714181100989372
O -0.7088783085769457 -0.0825386341096600 -0.8396702374872501 -0.9973398242463560
N -0.9275254965958354 -0.0413014154056864 -0.6718522667296037 0.7637225416907655
O -0.8910612883604312 -0.1043638935809390 -0.4390236647896563 -0.9974375214017446
O -2.1298529437101985 -0.1430325706957666 0.0636263003649142 -0.4871145088925188
N -1.4236629077661151 0.1148604927631370 0.0901590897955324 0.4662300369825688
N -2.3479148225191562 -0.2355813023014655 0.0201287622458311 0.6223673236702755
N -1.8794696080877384 -1.0366603506346916 0.7933519325888032 0.9509229066582735
O -1.8813057516938838 -1.0030766540791720 0.7135987027530508 -0.9922381659518612
O -1.8737090662274209 0.4355642998071880 0.5766039594108365 -0.6086911331096487
N -1.9740740785611133 0.7335368025708134 0.7567227791075346 0.3897866237988844
