21
s                      x[A]                      y[A]                      z[A]                      q[e]
N 1.7029787065179289 0.0507526164933131 -1.7880938300361828 0.0707249461841811
O 1.6273407216193265 -0.3856707243304971 -0.2603812932080573 -0.3496602100029151
N 1.4574463119339613 0.1107710266223849 -0.4158599788120109 0.9824851761690530
N 3.1282867824817497 -0.1706204972980790 0.0906748397175012 0.1071394941056757
O 1.5279564837166668 0.2451107545571152 -0.3030216779198446 -0.8194842575378962
N 0.5926219848668004 -0.2508677554687481 0.5338176841707212 0.3116552922920345
N 1.1054065097083776 -0.3061850565285960 1.8082863194449652 0.0918298459672651
N 1.4219880192779362 -0.3070770267705824 0.6878389492798688 0.5593901217632046
O 1.0837933921516234 -0.2358586526360228 0.6081633244134432 -0.9963138680841535
N -1.0106660715228970 0.7727327153894611 0.0238147144326635 0.9989733053171830
O -1.0202604786136540 0.8731644486851800 0.0378994594388864 -0.8354521971080898
N -1.0656138995934805 1.6461020165839637 -0.0680493613302861 0.2899344186932475
O -0.9492308863507779 1.2772913787446494 -0.0453573575614865 -0.8678253524624289
N -0.4225348852524324 -0.3898155860640039 0.1841322168772208 0.9219570073558310
O -0.6287711102318564 -0.2626218119703629 0.2943208808289181 -0.9704818863270434
O -0.5611674476483705 -0.3213587586547139 -0.3745896002697916 -0.3320651923316272
N -0.7073833534390191 0.2941917830733103 0.0360291499515122 0.9769593393400061
O -1.3819817978252251 -0.8418200640528952 0.3967313399150851 -0.1970026432733326
O -1.1387383889931626 -0.8149754781060374 -0.5777725008893685 -0.1946060569702309
N -2.5747768452279676 -0.7370220404757420 -0.4514279384609912 0.1283355164991325
N -1.0002241910604301 -2.1868500672648730 -0.0281337322582455 0.1235072004109040
