21
s                      x[A]                      y[A]                      z[A]                      q[e]
N 2.0734043507711268 1.5701611564609177 -0.0446463355355043 0.0707249461841811
O 1.6994980829297310 0.0401702433101346 -0.2923865011751524 -0.3496602100029151
N 1.5662694281758733 0.2781462506399313 0.1821612133805774 0.9824851761690530
N 3.1113324303116294 -0.5561878653190852 -0.0111267714061669 0.1071394941056757
O 1.6174417516392339 0.1704416372180504 0.3289254885729431 -0.8194842575378962
N 0.6335015894197592 -0.3442528041778463 -0.1262234523763786 0.3116552922920345
N 0.8226094063101521 -1.8860811164235078 0.0166736912333488 0.0918298459672651
N 1.3969290000403847 -0.6970793442243534 -0.0397357839164824 0.5593901217632046
O 1.0583228611793516 -0.5932247984562679 -0.0585409173885133 -0.9963138680841535
N -1.3097612442777169 -0.4618603274224523 -0.0843224432232602 0.9989733053171830
O -1.3606675717723862 -0.5487296700909043 -0.0999434345437565 -0.8354521971080898
N -1.7812072694153795 -1.2007521715695164 -0.0064399467983480 0.2899344186932475
O -1.5067830024919548 -0.9275575435216490 0.0024793839997289 -0.8678253524624289
N -0.2317802997624594 0.2917832013419550 -0.0787685017625532 0.9219570073558310
O -0.4387774536216916 0.2546438897039047 -0.2420757804681967 -0.9704818863270434
O -0.5203105170534695 0.3675054889261280 0.4184051283080674 -0.3320651923316272
N -0.8261495526376353 -0.1702246928956994 -0.0131223069457742 0.9769593393400061
O -0.8201737824989689 1.1042670069789275 -0.5143507464962945 -0.1970026432733326
O -0.8472859698347093 1.0793843536868442 0.4897919237750379 -0.1946060569702309
N -2.0990132866849498 1.6081884414561540 0.0006627533920716 0.1283355164991325
N -0.0001072281393114 2.2004911201040929 0.0038056547112672 0.1235072004109040
