21
s                      x[A]                      y[A]                      z[A]                      q[e]
N -1.8163587949514339 1.0347730777310917 -1.3444572411298352 0.0690680479201058
O -1.8783347917257629 -0.0597465821236489 0.2517732289135989 -0.3117950550350966
N -1.9478897245675664 -0.3655325956181433 0.0324832674964768 0.5776243102962968
N -3.2927826858252480 -0.5106382142004725 -0.0636287900388304 0.0604184539076988
O -1.7526162707658903 -0.5306474215558976 -0.2116218210161326 -0.3968494342195521
O -0.7014505155141022 -0.8008042160562032 0.2630293756222855 -0.9828651838991298
N -0.4838677360393495 -0.8208444872100016 0.2227145022137337 0.7759263489545838
N -1.1107411530103084 -1.0908951359913206 0.9115339050063531 0.9970342621901004
O -1.0669862348961172 -1.2865645259207910 0.7150794668520229 -0.3970377457969525
O -1.2029967871253584 -0.9229973689315815 1.1076397530188840 -0.3893757401670396
N 0.8177994468212086 1.7545570778136295 0.2087977102246197 0.1691966627363242
O 0.7397862285722905 1.3133081800955482 0.1661429398176661 -0.6800109224217911
O 0.7229841556321027 -0.4297111398955522 0.4140626431439334 -0.9821368279659007
N 0.6251362236860623 -0.5884793817808633 0.3043440632181283 0.8921713087406896
O 0.7817014400666107 -0.3575049776293280 -0.2807288361651883 -0.3335771210350215
N 0.6851057789080546 0.2364356119242025 0.1703544670267867 0.9988617281482304
N 2.8517108579938673 -0.3249930110959082 -0.5721666038153639 0.0655379221577991
N 1.5685817854907755 -0.5527028385156767 -0.2466133893835746 0.9908754307264420
O 1.5452976442043815 -0.6343786529962537 0.1206228664253106 -0.6595771554465193
O 1.4323385101202710 -0.5909886858496260 -0.5912146874828843 -0.5578053818499882
N 1.2345034219733342 -2.2206301766797134 -0.2325765406833384 0.0943160920587207
