25
s                      x[A]                      y[A]                      z[A]                      q[e]
N        1.7409472127835317        0.8210739508031635       -1.4018623022209826        0.1158659338886357
O        1.8005420661732108       -0.4144094397151018       -0.2862366322563849       -0.2341991647481463
N        3.3745391801535485       -0.1817319523723483        0.0452890584689082        0.0569852111266852
N        2.1583295203599344       -0.1381341591798933        0.1482561662946894        0.3189271149812888
O        1.9446802674699155        0.2229234043706961        0.1646031340254292       -0.2877498234141676
N        1.4741946653651465       -0.3535753995105705        0.4566136905951896        0.5692545008206258
O        0.7151802605285147       -0.4006652746332890        0.8835512858437576       -0.2058946535748549
O        1.1899443930837121       -0.3281975473470539        0.3569796255609298       -0.9992971180892700
N        0.6511843744370343       -0.3899005909659431        0.3727301279313627        0.6691943173322236
N        1.0811988700036894       -1.0645556435015058        1.6815417622128979        0.0628076875181509
N       -1.3936233515591248       -1.3111898425713389       -0.2677001930275262        0.7576134719858190
O       -1.2149642241227505       -1.0502936746187330       -0.1288400681678207       -0.9235083265987739
N       -1.0313774746243551       -0.6484464212302550       -0.1140477956370613        0.9955526175656415
O       -1.2837219042632440       -1.1486582385565633       -0.2784489411653069       -0.9936641819349231
O       -0.3421069509634714        0.1464418710355065       -0.0054184893742123       -0.9934394819660318
N       -0.6070723653601332       -0.1991084630390692        0.0730528677681126        0.8475065253219278
N       -0.1953407210574165        0.3426407326411001        0.1419820059607573        0.9207393412409772
O       -0.5439765897536302        0.3220194818612282        0.3177663781594510       -0.6738758902636315
N       -2.3817887396588096        1.3512266267688240       -0.2268635489910132        0.1207489421105395
N       -0.6725804583405074        0.9176302895445151        0.2109860496513971        0.4308753055723465
O       -0.9493744327882714        0.8850099818318234       -0.1542927320846288       -0.7095764258838037
N       -1.2131398979478882        0.7772900118524421       -0.0296774556260643        0.9977500474782615
O       -1.1123131458308657        0.8926075622566646        0.1420689069891301       -0.9963537733476465
O       -0.4575441671751378        2.3059393781537625       -0.0175494326543282       -0.1586318904925156
N       -0.5409165512145941        2.2426589195221291        0.1193719423317839        0.3123697133706422

        RMSE         6.095402147E-01 kcal/mol

Coordinates in bohr
s                   x[bohr]                   y[bohr]                   z[bohr]                      q[e]
+        3.2899134310400284        1.5516048957656134       -2.6491358168014485        0.1158659338886357
-        3.4025313824333341       -0.7831203448659687       -0.5409088420379554       -0.2341991647481463
+        6.3769548501172011       -0.3434236182284844        0.0855839169860830        0.0569852111266852
+        4.0786516819710315       -0.2610357294203946        0.2801635507072948        0.3189271149812888
-        3.6749131071002163        0.4212641812153042        0.3110548427000900       -0.2877498234141676
+        2.7858241731510778       -0.6681606697743141        0.8628748203594473        0.5692545008206258
-        1.3514948227324701       -0.7571476370382618        1.6696699480408062       -0.2058946535748549
-        2.2486690074523503       -0.6202034795329102        0.6745937246786422       -0.9992971180892700
+        1.2305601248635762       -0.7368053330797891        0.7043578604971346        0.6691943173322236
+        2.0431697514614542       -2.0117186115283654        3.1776533991021081        0.0628076875181509
+       -2.6335664564893775       -2.4777897009419960       -0.5058800485542198        0.7576134719858190
-       -2.2959496358213616       -1.9847673963301233       -0.2434724428224983       -0.9235083265987739
+       -1.9490209590063621       -1.2253861431584445       -0.2155190989662300        0.9955526175656415
-       -2.4258828203087250       -2.1706494826227081       -0.5261922387261502       -0.9936641819349231
-       -0.6464884429363921        0.2767350295567226       -0.0102394609309646       -0.9934394819660318
+       -1.1472005088645236       -0.3762604644046835        0.1380499127610185        0.8475065253219278
+       -0.3691404639479701        0.6474971441178976        0.2683071060089521        0.9207393412409772
-       -1.0279667732948901        0.6085286277795562        0.6004914266000264       -0.6738758902636315
+       -4.5009284066545261        2.5534482580193005       -0.4287099754423996        0.1207489421105395
+       -1.2709928635984573        1.7340699316637016        0.3987058501333876        0.4308753055723465
-       -1.7940576684817033        1.6724264839585545       -0.2915710067885883       -0.7095764258838037
+       -2.2925021589873680        1.4688652424549846       -0.0560822632336891        0.9977500474782615
-       -2.1019672113667700        1.6867838301776439        0.2684713251525974       -0.9963537733476465
-       -0.8646331662617019        4.3575938866191430       -0.0331636213738467       -0.1586318904925156
+       -1.0221841385227659        4.2380111507119924        0.2255802780710173        0.3123697133706422
