25
s                      x[A]                      y[A]                      z[A]                      q[e]
N 0.0833232450854288 -0.0071040670741854 0.2375474835462174 0.1158659338886357
O -0.1700562402858717 0.4592530784982943 0.2898123010971430 -0.2341991647481463
N -0.0762273969594157 -0.0021171400588945 -0.3905435050201567 0.0569852111266852
N -0.5208478579202319 -0.0478121199451876 0.1693976880594948 0.3189271149812888
O -0.2229291778103018 -0.3304652984193272 0.2460059654094947 -0.2877498234141676
N 0.0008667483157110 0.1279099063456092 -0.5533545873618958 0.5692545008206258
O -0.1418387676673719 -0.4918529434469104 0.0462599310493494 -0.2058946535748549
O -0.0393154930241368 0.1467001984996959 -0.2547508574416461 -0.9992971180892700
N -0.1975475860731581 -0.0139117746042768 0.2384836464758251 0.6691943173322236
N 0.0164327827192404 -0.0366978832037414 0.4072140230494262 0.0628076875181509
N 0.0568979215364039 0.0018050084648892 0.2678458587310184 0.7576134719858190
O 0.0294387992680019 -0.0694750920883253 -0.0696892511060511 -0.9235083265987739
N 0.0987987654951551 -0.0128453931908977 -0.5014270563371818 0.9955526175656415
O 0.0604805161053248 0.0510003269405872 0.0769662377136019 -0.9936641819349231
O -0.0439421717399590 0.1106467612842157 -0.1267377504915169 -0.9934394819660318
N -0.0342229985978151 -0.0543422945490670 0.2845267752494761 0.8475065253219278
N -0.0831938769873566 0.0192235280046856 -0.3947740042077532 0.9207393412409772
O 0.1529516479278610 -0.2455668815476382 -0.2301235184043000 -0.6738758902636315
N -0.0678221988448848 0.0214052042128356 0.2157734021424872 0.1207489421105395
N 0.2688281915862323 0.0755386292093208 -0.4860872998937174 0.4308753055723465
O 0.3543324747845200 -0.2045699547249412 -0.1321311403351556 -0.7095764258838037
N 0.4505020090545372 -0.0067839421952088 0.0891510370607299 0.9977500474782615
O 0.3121672626051420 0.1201034763266936 -0.0450602210308686 -0.9963537733476465
O -0.0239339820470044 -0.3620631939130988 -0.1398969161450339 -0.1586318904925156
N -0.0400582275023061 -0.2026033037676975 -0.0776248230081616 0.3123697133706422
