25
s                      x[A]                      y[A]                      z[A]                      q[e]
N        2.0262678441613993        1.4025285609963791       -0.2614846247110999        0.1158659338886357
O        1.8311141007910048       -0.2726780933574221       -0.4415750133049348       -0.2341991647481463
N        3.3467737030308475       -0.5642639178912529        0.0174393595520222        0.0569852111266852
N        2.1541059659244439       -0.4169672114179227        0.0479382217775422        0.3189271149812888
O        1.9108997263444922       -0.2064939457170582        0.3346122997442287       -0.2877498234141676
N        1.3805151355319532       -0.7603130379387630       -0.0281945076748343        0.5692545008206258
O        0.7287950823435903       -0.7022132095846064        0.5550757329722186       -0.2058946535748549
O        1.0840678657928222       -0.7433434817771283       -0.0942139466132646       -0.9992971180892700
N        0.5589994596184855       -0.6276296561158510        0.0691843091851227        0.6691943173322236
N        0.8235648627310861       -2.0130329599108001        0.2891068476827474        0.0628076875181509
N       -1.7366214254598917       -1.0849511731729342       -0.0723172290778093        0.7576134719858190
O       -1.4698222589629231       -0.8585419287858662        0.0254300470903615       -0.9235083265987739
N       -1.2161754112474674       -0.5148637166656996       -0.0204875250182207        0.9955526175656415
O       -1.5973723701406002       -0.9380967397940486       -0.1096298239158593       -0.9936641819349231
O       -0.3413639188579030        0.1154361063882844       -0.0913907061773474       -0.9934394819660318
N       -0.6638460112689165       -0.1677479490143184        0.0561375168108851        0.8475065253219278
N       -0.1202350443973433        0.2823931474831362        0.0191739572928304        0.9207393412409772
O       -0.4230526770952139        0.3214094133511541        0.2827228876790939       -0.6738758902636315
N       -2.0851189354429045        1.7256144273505247       -0.0089559988602220        0.1207489421105395
N       -0.4391179520136390        0.9553260129599366        0.1179350871099381        0.4308753055723465
O       -0.7944701143232545        0.9721954381817373       -0.1916555145795626       -0.7095764258838037
N       -1.0538906809258790        0.9279504588752119       -0.0046291638959877        0.9977500474782615
O       -0.8920366590033701        1.0261145358415482        0.1432276110208199       -0.9963537733476465
O       -0.0120731563088028        2.2634848058504882       -0.2569172793982121       -0.1586318904925156
N       -0.0507552139194373        2.2221634127999397       -0.0913209875421565        0.3123697133706422

        RMSE         1.348370217E+00 kcal/mol

Coordinates in bohr
s                   x[bohr]                   y[bohr]                   z[bohr]                      q[e]
+        3.8290912822869072        2.6503948634156309       -0.4941343267221011        0.1158659338886357
-        3.4603041549589806       -0.5152869168575492       -0.8344558389917234       -0.2341991647481463
+        6.3244857026126313       -1.0663042672922913        0.0329556133567089        0.0569852111266852
+        4.0706703208119919       -0.7879538328757462        0.0905901101010129        0.3189271149812888
-        3.6110771360034013       -0.3902170039703955        0.6323256047261947       -0.2877498234141676
+        2.6087955182046865       -1.4367834113190894       -0.0532798977475556        0.5692545008206258
-        1.3772231072098717       -1.3269906477936242        1.0489411142052547       -0.2058946535748549
-        2.0485913677580068       -1.4047155977030243       -0.1780385562975752       -0.9992971180892700
+        1.0563558829578603       -1.1860481582742362        0.1307393965388783        0.6691943173322236
+        1.5563120371120234       -3.8040809757511398        0.5463327631148448        0.0628076875181509
+       -3.2817388777213718       -2.0502605767910143       -0.1366597571090548        0.7576134719858190
-       -2.7775615225416770       -1.6224091126276057        0.0480558243582790       -0.9235083265987739
+       -2.2982384477737572       -0.9729514164334896       -0.0387158112729025        0.9955526175656415
-       -3.0185962999391842       -1.7727459173956279       -0.2071703423831407       -0.9936641819349231
-       -0.6450843157544455        0.2181426260630703       -0.1727034050873735       -0.9934394819660318
+       -1.2544871507758433       -0.3169976817443252        0.1060845321358576        0.8475065253219278
+       -0.2272113045932415        0.5336457084491480        0.0362335280246743        0.9207393412409772
-       -0.7994536963517002        0.6073757653777500        0.5342688271120629       -0.6738758902636315
+       -3.9403037269932710        3.2609386658312358       -0.0169243850257320        0.1207489421105395
+       -0.8298126660777105        1.8053045250198558        0.2228650152197948        0.4308753055723465
-       -1.5013309309321217        1.8371831185829499       -0.3621764329890631       -0.7095764258838037
+       -1.9915647531221736        1.7535722252670678       -0.0087478519532741        0.9977500474782615
-       -1.6857049793847845        1.9390754460918067        0.2706609584329549       -0.9963537733476465
-       -0.0228149588934807        4.2773663721925077       -0.4855032949603496       -0.1586318904925156
+       -0.0959134537467615        4.1992802562045748       -0.1725716559610220        0.3123697133706422
