25
s                      x[A]                      y[A]                      z[A]                      q[e]
N 0.0831034160078568 -0.0081120472385644 0.2376089383159710 0.1158659338886357
O -0.1699203265546158 0.4588038267329689 0.2903560638988038 -0.2341991647481463
N -0.0765147562018687 -0.0027538668895384 -0.3906230728060400 0.0569852111266852
N -0.5209281130503419 -0.0464820826454697 0.1695108380769094 0.3189271149812888
O -0.2227340310751417 -0.3320466421227547 0.2457273891472166 -0.2877498234141676
N 0.0000975429427087 0.1269347101847670 -0.5532642627929861 0.5692545008206258
O -0.1414062901589446 -0.4899707582675273 0.0467360218206169 -0.2058946535748549
O -0.0385455403877345 0.1478281031314937 -0.2542000927062903 -0.9992971180892700
N -0.1972340910038530 -0.0152665330471946 0.2382791303701976 0.6691943173322236
N 0.0166793280652963 -0.0372143037107344 0.4085773260830999 0.0628076875181509
N 0.0571994383479818 0.0021412044064572 0.2666496817120507 0.7576134719858190
O 0.0288699700967776 -0.0693918825587781 -0.0700229890566977 -0.9235083265987739
N 0.0984703364119694 -0.0126771842448293 -0.5028547727531164 0.9955526175656415
O 0.0597022735435215 0.0507413788935148 0.0762759837816747 -0.9936641819349231
O -0.0439404247137611 0.1107139240681826 -0.1267446480187256 -0.9934394819660318
N -0.0347370734115750 -0.0545106567798173 0.2836034899149261 0.8475065253219278
N -0.0837164816333809 0.0189182796767263 -0.3946115002566363 0.9207393412409772
O 0.1533815081356467 -0.2448455455972594 -0.2300346545009249 -0.6738758902636315
N -0.0678136796455063 0.0212336373576752 0.2154485609992274 0.1207489421105395
N 0.2692323313322934 0.0756361925985272 -0.4863818338828232 0.4308753055723465
O 0.3543060895429029 -0.2042010798588677 -0.1320357689125123 -0.7095764258838037
N 0.4508425231613130 -0.0069000996237768 0.0880956006207347 0.9977500474782615
O 0.3123402421930231 0.1199608391692816 -0.0448871231458228 -0.9963537733476465
O -0.0237603262454219 -0.3620267033194587 -0.1397786711327045 -0.1586318904925156
N -0.0402438160985069 -0.2023366046822447 -0.0770873579175544 0.3123697133706422
