25
s                      x[A]                      y[A]                      z[A]                      q[e]
N 0.0667924663453615 -0.0028044321633759 0.2418695238254207 0.1158659338886357
O -0.1692321839937378 0.4430744333443383 0.3025127756428863 -0.2341991647481463
N -0.0819439089232130 -0.0053137930050997 -0.3914312912542477 0.0569852111266852
N -0.5166613725788363 -0.0353555665781500 0.1457761611600158 0.3189271149812888
O -0.2336857305655308 -0.3375009665468232 0.2685465539572988 -0.2877498234141676
N 0.0306784221445611 0.1224481955134115 -0.5559777597406651 0.5692545008206258
O -0.1564417291311789 -0.5002776110108391 0.0440561566316304 -0.2058946535748549
O -0.0641472087175572 0.1585013262612159 -0.2692856046812493 -0.9992971180892700
N -0.1903493881486871 -0.0121056793009014 0.2402194269697811 0.6691943173322236
N 0.0172248619557713 -0.0218393863052080 0.3831514284878750 0.0628076875181509
N 0.0567375567280355 0.0056586250047052 0.2940063520315244 0.7576134719858190
O 0.0379786066340036 -0.0765808801272407 -0.0577934772108507 -0.9235083265987739
N 0.1046262134287446 -0.0082814414037421 -0.4762639517647849 0.9955526175656415
O 0.0713245786947517 0.0501615920352145 0.0955407262471334 -0.9936641819349231
O -0.0397487080050944 0.1126050462675624 -0.1273614786274264 -0.9934394819660318
N -0.0296041977846984 -0.0501205644381331 0.2982515363223096 0.8475065253219278
N -0.0814913804586965 0.0230145854913051 -0.3995735362423196 0.9207393412409772
O 0.1572863315680030 -0.2583012029286750 -0.2300308947868879 -0.6738758902636315
N -0.0644392856471003 0.0230490719463108 0.2205039539659631 0.1207489421105395
N 0.2650477316562294 0.0739712622873200 -0.4882441556736136 0.4308753055723465
O 0.3468081563250357 -0.2100882993424359 -0.1265167543241449 -0.7095764258838037
N 0.4508910500201719 -0.0087600543998652 0.1033291508721830 0.9977500474782615
O 0.3027764077906691 0.1267868226749025 -0.0366210785100507 -0.9963537733476465
O -0.0332152353316550 -0.3694795270664371 -0.1421185191392154 -0.1586318904925156
N -0.0319495058625132 -0.2027447416395330 -0.0909354686378158 0.3123697133706422
