25
s                      x[A]                      y[A]                      z[A]                      q[e]
N        2.4265450173581864        0.1601598768114329       -0.1425212936838688        0.1158659338886357
O        1.1798402555125151        1.1209326477833383        0.4491040389070202       -0.2341991647481463
N        1.9108903612222370        2.4833369361615385        0.0176514013246987        0.0569852111266852
N        1.1853971984470648        1.5234793332808880       -0.0001198271880873        0.3189271149812888
O        1.1032576994260981        1.2444701564493803       -0.3200864891767894       -0.2877498234141676
N        0.3121166732716536        1.2282109365347627       -0.0007119481921510        0.5692545008206258
O        0.3828986456944804        0.5724396777765208        0.5589854128215419       -0.2058946535748549
O        0.3342477995320209        0.9314476250359998       -0.0791507522620182       -0.9992971180892700
N        0.2960249018916164        0.3920714769521056        0.0812687837186522        0.6691943173322236
N       -0.8901743711885651        1.6549516185552733        0.2607992559987931        0.0628076875181509
N        0.9933723438059691       -1.8842994366348864       -0.0951712620532175        0.7576134719858190
O        0.7631033558652979       -1.6241335031282107        0.0133847209843577       -0.9235083265987739
N        0.3868843609369083       -1.4141553735693511       -0.0052110626728578        0.9955526175656415
O        0.8452074437637759       -1.7439117798991441       -0.1265147923335736       -0.9936641819349231
O       -0.2894648311901138       -0.6273043797339439       -0.0427694055581220       -0.9934394819660318
N        0.0373201820717954       -0.9127694643705488        0.0897045382408183        0.8475065253219278
N       -0.4812649921949804       -0.4317417679688935        0.0839640925439160        0.9207393412409772
O       -0.4594981503109032       -0.7339570134288177        0.3441178758329761       -0.6738758902636315
N       -2.9069675879459007        0.0948016031302456       -0.1625337279629119        0.1207489421105395
N       -1.0967558569250191       -0.8318650251482863        0.2207627907619435        0.4308753055723465
O       -1.4937220203765673       -0.2467736217666245        0.2370198743604507       -0.7095764258838037
N       -1.6276658530324535       -0.0953666351173044       -0.0225850748879997        0.9977500474782615
O       -1.5772472007792004       -0.3262477243023743       -0.0962810203060442       -0.9963537733476465
O       -1.9333912506635373       -1.5939176951188183        0.7496483804508827       -0.1586318904925156
N       -1.9177022944890074       -1.5924197567735261        0.5747185745227752        0.3123697133706422

        RMSE         3.725996295E+00 kcal/mol

Coordinates in bohr
s                   x[bohr]                   y[bohr]                   z[bohr]                      q[e]
+        4.5855055139012837        0.3026583034606722       -0.2693262121084546        0.1158659338886357
-        2.2295749547088390        2.1182557093947922        0.8486836353712250       -0.2341991647481463
+        3.6110594384872075        4.6928266865788579        0.0333563142342240        0.0569852111266852
+        2.2400760549499359        2.8789586976959680       -0.0002264405678687        0.3189271149812888
-        2.0848548977179977        2.3517077669949846       -0.6048758010034534       -0.2877498234141676
+        0.5898150316724289        2.3209822943427674       -0.0013453870986803        0.5692545008206258
-        0.7235735741712802        1.0817542143429524        1.0563293383586969       -0.2058946535748549
-        0.6316367991524507        1.7601809115261757       -0.1495732443991760       -0.9992971180892700
+        0.5594059908906780        0.7409077130432308        0.1535757437773188        0.6691943173322236
+       -1.6821857654480257        3.1274053099526182        0.4928391675608835        0.0628076875181509
+        1.8772016703974155       -3.5608098735944123       -0.1798476202947583        0.7576134719858190
-        1.4420563480031956       -3.0691675120927231        0.0252934569261043       -0.9235083265987739
+        0.7311054843935315       -2.6723663548905772       -0.0098474812742975        0.9955526175656415
-        1.5972105879118355       -3.2955156509690746       -0.2390783083296258       -0.9936641819349231
-       -0.5470092539011981       -1.1854334749973521       -0.0808224630534844       -0.9934394819660318
+        0.0705249230679146       -1.7248843033411745        0.1695170094858051        0.8475065253219278
+       -0.9094590290191121       -0.8158736983821697        0.1586691392805968        0.9207393412409772
-       -0.8683256592420620       -1.3869777432394388        0.6502885401986279       -0.6738758902636315
+       -5.4933725968004952        0.1791490661705098       -0.3071442319995702        0.1207489421105395
+       -2.0725681960800966       -1.5719970708773499        0.4171812132318247        0.4308753055723465
-       -2.8227255260772495       -0.4663345601262388        0.4479026488316757       -0.7095764258838037
+       -3.0758426859910291       -0.1802168218781741       -0.0426796060612745        0.9977500474782615
-       -2.9805652416176835       -0.6165188479853595       -0.1819447594580674       -0.9963537733476465
-       -3.6535799571104710       -3.0120679102955563        1.4166301294451824       -0.1586318904925156
+       -3.6239321267462992       -3.0092372170701327        1.0860607050615700        0.3123697133706422
