25
s                      x[A]                      y[A]                      z[A]                      q[e]
N 2.4266635141209512 0.1601285742353190 -0.1425280520115585 0.1158659338886357
O 1.1797396930004795 1.1209979383048487 0.4491067893983707 -0.2341991647481463
N 1.9109111988554637 2.4833278369625842 0.0176538438838100 0.0569852111266852
N 1.1855317809244845 1.5233914353142610 -0.0001090611896987 0.3189271149812888
O 1.1031314399356338 1.2445554462200545 -0.3201024743872393 -0.2877498234141676
N 0.3123178292953824 1.2280619242087725 -0.0006848102275163 0.5692545008206258
O 0.3828253482140040 0.5724869848234369 0.5589864189099831 -0.2058946535748549
O 0.3339261373895132 0.9316827955942466 -0.0791910294024263 -0.9992971180892700
N 0.2962463520638907 0.3919300041554495 0.0812804997456336 0.6691943173322236
N -0.8901588400480667 1.6549297766429254 0.2608048380876063 0.0628076875181509
N 0.9936863039738089 -1.8841107553108327 -0.0951916870259722 0.7576134719858190
O 0.7628145583169097 -1.6243758786508460 0.0134012881644124 -0.9235083265987739
N 0.3870874207407491 -1.4140551257563643 -0.0052254544238798 0.9955526175656415
O 0.8448813857297274 -1.7442068773691128 -0.1264965651438592 -0.9936641819349231
O -0.2896403204382207 -0.6272048089669829 -0.0427692113791197 -0.9934394819660318
N 0.0374882387647979 -0.9128007730940060 0.0896981431155214 0.8475065253219278
N -0.4811107622654168 -0.4318802950030592 0.0839662709374465 0.9207393412409772
O -0.4596015263062918 -0.7338846709410373 0.3441218640076700 -0.6738758902636315
N -2.9069610738705651 0.0947713338875540 -0.1625315586805387 0.1207489421105395
N -1.0967201610025268 -0.8319451706677958 0.2207623494680394 0.4308753055723465
O -1.4937954627606223 -0.2466134103994366 0.2370145082796697 -0.7095764258838037
N -1.6275783864880586 -0.0955913664675899 -0.0225681556079606 0.9977500474782615
O -1.5773383580356142 -0.3260372015372259 -0.0962942284058614 -0.9963537733476465
O -1.9333809751296025 -1.5938641973934913 0.7496534691791596 -0.1586318904925156
N -1.9177324292042992 -1.5925300370981688 0.5747227150982321 0.3123697133706422
