21
s                      x[A]                      y[A]                      z[A]                      q[e]
N -0.0027909229949533 0.1435081912751270 -0.0759425088255201 0.0707249461841811
O 0.7508937920812672 -0.4852414481389300 -0.5984111452441342 -0.3496602100029151
N 0.8617421263529190 0.0188342547341853 0.5896281177385139 0.9824851761690530
N 1.4755577586803952 -0.5429018766637401 0.7788282645944519 0.1071394941056757
O 0.8497088528424244 0.1447689120584482 -0.6376741516044589 -0.8194842575378962
N -0.4203548255175887 0.1312750569910539 0.5616533397602684 0.3116552922920345
N -1.1191245100930358 -0.1080646004892989 0.3725976228411755 0.0918298459672651
N -0.0835525157158660 -0.1340707691047443 -0.0776564602743624 0.5593901217632046
O -0.1832653422112145 -0.0418988016810019 -0.4054371348819424 -0.9963138680841535
N 1.1384342629508613 0.4330570860805978 0.6342847658670595 0.9989733053171830
O 1.2866156408719212 0.5695105879946124 -0.4301718748179970 -0.8354521971080898
N 0.8432416658757206 -0.4706947153040116 -0.1368619341921876 0.2899344186932475
O 1.0957280296277625 -0.4173332879882824 0.1526441553008543 -0.8678253524624289
N -0.1394978417687245 0.3125722390357572 0.4057045432620948 0.9219570073558310
O 0.0415146578997340 0.5058054216000922 0.3836999528000398 -0.9704818863270434
O 0.1443776133622318 -0.1094890234089197 0.1290202359989913 -0.3320651923316272
N 0.5990192974524159 0.3073016647903320 0.5625982954244394 0.9769593393400061
O -0.0733243808823386 0.6747130218597079 0.5276339553677651 -0.1970026432733326
O 0.1240583721146166 -0.0391505464619637 -0.6515530573549879 -0.1946060569702309
N -0.1173056666396985 0.1486483499670827 0.2738269503452247 0.1283355164991325
N -0.8769501074394370 1.0431934200309219 -0.0269850894492408 0.1235072004109040
