21
s                      x[A]                      y[A]                      z[A]                      q[e]
N -1.9522222381435423 1.4642105288682958 -0.1920034398264030 0.0707249461841811
O -1.6309741229669581 -0.0057688165735479 0.2974914742480092 -0.3496602100029151
N -1.4882306701719543 0.1480295002283805 -0.2070613151475910 0.9824851761690530
N -3.0509506150279684 -0.6170828132452753 0.0915253492506776 0.1071394941056757
O -1.5399398359630174 0.0185182007197238 -0.3344436120056287 -0.8194842575378962
N -0.5285769246129151 -0.5913378751760577 -0.0782194078879318 0.3116552922920345
N -0.7724548073953630 -1.9657888819970215 0.3223555511875691 0.0918298459672651
N -1.3074544113948887 -0.8981786471230208 0.0374266034397016 0.5593901217632046
O -0.9992055144052013 -0.7252992530347088 0.0062204726805953 -0.9963138680841535
N 0.7740794321919727 0.8661767491705774 -0.0960018829100813 0.9989733053171830
O 0.7514329568704700 0.9640215980340048 -0.1132039617801668 -0.8354521971080898
N 0.6136710148523132 1.7290055928501338 -0.0329199765662636 0.2899344186932475
O 0.6003713386501306 1.3415103575975644 -0.0158540419727351 -0.8678253524624289
N 0.5029608291279501 -0.4066679541054751 -0.0660405440330859 0.9219570073558310
O 0.6231654684608616 -0.2411167260753981 -0.2355469612040775 -0.9704818863270434
O 0.7802378236823135 -0.2562934754094681 0.4195314625896899 -0.3320651923316272
N 0.6218036751125775 0.3373478841861253 -0.0173804610763735 0.9769593393400061
O 1.4663180548089030 -0.6152089878285805 -0.5283564084839631 -0.1970026432733326
O 1.5011313344783273 -0.5606438392605355 0.4738146281793660 -0.1946060569702309
N 2.7704988180945112 -0.1252972762258466 -0.0317412223703949 0.1283355164991325
N 1.6025996083360590 -1.9667005528844963 0.0097637936134134 0.1235072004109040
