21
s                      x[A]                      y[A]                      z[A]                      q[e]
N -0.0019562285541600 -1.1564731396440000 -0.4360154395772341 0.0707249461841811
O -0.2312212482401436 0.1880552958971723 0.6193013542592422 -0.3496602100029151
N 0.2416552348641436 0.0041081647597554 0.4164358383945159 0.9824851761690530
N 0.2805411766802557 0.3760981444543615 -0.2126119870875055 0.1071394941056757
O 0.2215688674198047 -0.1694839996922546 0.3447730002996203 -0.8194842575378962
N -0.4575986613211855 -0.3672166030832716 0.4215702817008091 0.3116552922920345
N 0.1023153731091921 -1.4634519429649679 -0.1737760766956816 0.0918298459672651
N -0.6108855838566826 -0.4474225585604516 -0.4056210642200678 0.5593901217632046
O -0.4983118156829599 -0.4045587305378593 -0.0719021271501530 -0.9963138680841535
N 0.3455009374136865 0.1955077834903421 -0.3210491244143971 0.9989733053171830
O 0.2502552884747860 0.2294872183009254 -0.3335412491018980 -0.8354521971080898
N 0.1330268979628842 0.2788851825376922 0.4088496344089299 0.2899344186932475
O -0.1404258973550685 0.2182060159876595 -0.4819842634058449 -0.8678253524624289
N -0.2046730503764164 -0.0895344153866208 0.4074130366149003 0.9219570073558310
O 0.0166283605891948 -0.2296520906215204 0.3628988537855484 -0.9704818863270434
O 0.0084516242502380 0.4433426139312110 0.3306332615530346 -0.3320651923316272
N 0.2876682105200418 -0.0526151542582405 -0.1638032484474681 0.9769593393400061
O 0.5581827410207786 -0.2644470340561484 -0.2036430111414591 -0.1970026432733326
O 0.4203579071239227 0.7057278748601739 -0.4234180503905879 -0.1946060569702309
N 1.3691088725208498 -0.4669228958710878 0.4638397913252947 0.1283355164991325
N -0.1713171905229389 0.3654145637815661 0.8944369866735534 0.1235072004109040
