25
s                      x[A]                      y[A]                      z[A]                      q[e]
N        1.8668254075389139        1.1986067687585904       -0.8970228713911208        0.1158659338886357
O        1.7808631094486507       -0.3630912199684944       -0.3768588218575536       -0.2341991647481463
N        3.3633373372612030       -0.4193248425034576        0.0218659619641324        0.0569852111266852
N        2.1401268108653948       -0.3299179619707161        0.0233616661835625        0.3189271149812888
O        1.9175327528532706       -0.0142998814879877        0.3341050537696396       -0.2877498234141676
N        1.3579108230853461       -0.6955963028404951        0.2668777393739380        0.5692545008206258
O        0.6799852713893862       -0.6316701560713277        0.6624045545238542       -0.2058946535748549
O        1.1047594882721343       -0.5885013530146886        0.1073335100737339       -0.9992971180892700
N        0.5684652450632324       -0.5576816050094722        0.2257639278155533        0.6691943173322236
N        0.9139230400229615       -1.8218822331872695        1.0086752583517919        0.0628076875181509
N       -1.5235425742285331       -1.0807995212983794       -0.2040549301562050        0.7576134719858190
O       -1.3107954677621680       -0.8874715074178644       -0.1022108289464528       -0.9235083265987739
N       -1.0625125772095518       -0.5262054152565970       -0.0900773926117174        0.9955526175656415
O       -1.3993321926315518       -0.9523322071486711       -0.2182996209306485       -0.9936641819349231
O       -0.3172236389944396        0.0972453258215233       -0.0071017400867510       -0.9934394819660318
N       -0.6015731634650161       -0.1790172542908005        0.0433458590987340        0.8475065253219278
N       -0.1405098577299965        0.2518041434868863        0.0928589921994212        0.9207393412409772
O       -0.4608075751762278        0.2938158196187466        0.2825783338083208       -0.6738758902636315
N       -2.1553702899035572        1.6423791713370877       -0.0898657899480531        0.1207489421105395
N       -0.4981515777696076        0.9112064348951633        0.1903740492406327        0.4308753055723465
O       -0.7931082714952687        0.9299587507380785       -0.1091230677947234       -0.7095764258838037
N       -1.0342968382754434        0.8525861533473813        0.0106576943305492        0.9977500474782615
O       -0.9087289502059764        0.9487547168001319        0.1578466919328540       -0.9963537733476465
O       -0.1163741264394715        2.2282334469614127       -0.0077306838857073       -0.1586318904925156
N       -0.1717974650460919        2.2012524519215444        0.1467396731692859        0.3123697133706422

        RMSE         4.224415260E-01 kcal/mol

Coordinates in bohr
s                   x[bohr]                   y[bohr]                   z[bohr]                      q[e]
+        3.5277887442947429        2.2650385250736980       -1.6951275552009983        0.1158659338886357
-        3.3653435437891788       -0.6861429642988188       -0.7121599612734767       -0.2341991647481463
+        6.3557864349502617       -0.7924091099322730        0.0413206795818882        0.0569852111266852
+        4.0442535462850806       -0.6234545919938644        0.0441471509213027        0.3189271149812888
-        3.6236117394878944       -0.0270228596388011        0.6313670487559804       -0.2877498234141676
+        2.5660795584263214       -1.3144865062495590        0.5043258363980561        0.5692545008206258
-        1.2849859322710546       -1.1936835966000117        1.2517631923059815       -0.2058946535748549
-        2.0876928673352735       -1.1121063816591372        0.2028309381234260       -0.9992971180892700
+        1.0742436250107770       -1.0538654986736529        0.4266319925790264        0.6691943173322236
+        1.7270642453892306       -3.4428584535614344        1.9061199878103057        0.0628076875181509
+       -2.8790782057669313       -2.0424150917798620       -0.3856079325446531        0.7576134719858190
-       -2.4770444405618832       -1.6770780931669791       -0.1931504737648131       -0.9235083265987739
+       -2.0078577757804177       -0.9943841205677767       -0.1702216021314843        0.9955526175656415
-       -2.6443546026100297       -1.7996470519637600       -0.4125264968501869       -0.9936641819349231
-       -0.5994657982205951        0.1837670327835913       -0.0134203437781446       -0.9934394819660318
+       -1.1368085233741536       -0.3382935823410533        0.0819118023692915        0.8475065253219278
+       -0.2655251490367369        0.4758408684457006        0.1754780635429309        0.9207393412409772
-       -0.8708001136193898        0.5552314304063501        0.5339956598859268       -0.6738758902636315
+       -4.0730595468663653        3.1036468279834732       -0.1698217310497414        0.1207489421105395
+       -0.9413700509492644        1.7219306057066777        0.3597548144592186        0.4308753055723465
-       -1.4987574209613095        1.7573673468678714       -0.2062127121017946       -0.7095764258838037
+       -1.9545377567675355        1.6111543281841405        0.0201401234135826        0.9977500474782615
-       -1.7172488381640996        1.7928865749885523        0.2982870175626076       -0.9963537733476465
-       -0.2199152270600019        4.2107509583419311       -0.0146088753064769       -0.1586318904925156
+       -0.3246501579850278        4.1597642671242445        0.2772977940291427        0.3123697133706422
