25
s                      x[A]                      y[A]                      z[A]                      q[e]
N 1.7813707536961796 0.9947110767319792 -1.2425662657331185 0.1158659338886357
O 1.7977462550944097 -0.4105095005840732 -0.3491146788384440 -0.2341991647481463
N 3.3695709166648422 -0.2695436462760423 0.0409881237481849 0.0569852111266852
N 2.1540136940117858 -0.2167807057828074 0.1319879730950765 0.3189271149812888
O 1.9460656811593411 0.1364248972769665 0.2036975255903852 -0.2877498234141676
N 1.4554513793357469 -0.4884103325235582 0.3806771847359816 0.5692545008206258
O 0.7064245629710696 -0.4979182520885291 0.8353420717956990 -0.2058946535748549
O 1.1696181469668279 -0.4458807115121907 0.2946816789762478 -0.9992971180892700
N 0.6288551181764712 -0.4710508771234139 0.3202500964493254 0.6691943173322236
N 1.0309806103583083 -1.3636098713487121 1.4704225384316969 0.0628076875181509
N -1.4880156537816975 -1.2452667137315339 -0.2710378677500487 0.7576134719858190
O -1.2890844118597959 -0.9972005040629732 -0.1328181827202204 -0.9235083265987739
N -1.0796771789541173 -0.6105874436702479 -0.1164113691557073 0.9955526175656415
O -1.3691119742950952 -1.0879225624532498 -0.2829668201018010 -0.9936641819349231
O -0.3354312158531555 0.1361820395477925 -0.0134102947394706 -0.9934394819660318
N -0.6216690971955743 -0.1938099781558962 0.0655351345515205 0.8475065253219278
N -0.1720738155273695 0.3200043922391301 0.1324524390720012 0.9207393412409772
O -0.5152710982613103 0.3172209015637659 0.3204471257040080 -0.6738758902636315
N -2.2936511019685546 1.4789518542258249 -0.1673882969999569 0.1207489421105395
N -0.6080355709872228 0.9246482912410330 0.2225727142483828 0.4308753055723465
O -0.8931659641413705 0.9181036838934937 -0.1380096138713111 -0.7095764258838037
N -1.1630916782636282 0.8258056734883392 -0.0090636492082817 0.9977500474782615
O -1.0491610492384882 0.9296432957034917 0.1630320045995302 -0.9963537733476465
O -0.3063074191874779 2.3005927406230517 0.0197781916975596 -0.1586318904925156
N -0.3897857898628891 2.2400458674743247 0.1572056553369741 0.3123697133706422
