25
s                      x[A]                      y[A]                      z[A]                      q[e]
N        1.7812224988984022        0.9939802862532052       -1.2431379331189292        0.1158659338886357
O        1.7975404444442029       -0.4102952282224316       -0.3488804129738421       -0.2341991647481463
N        3.3696024880637609       -0.2699023230775646        0.0405436198316772        0.0569852111266852
N        2.1535516045286851       -0.2178108358399978        0.1316145048895332        0.3189271149812888
O        1.9465980278963699        0.1377647359886577        0.2040949660934211       -0.2877498234141676
N        1.4548699531929317       -0.4891065152015743        0.3817740868943325        0.5692545008206258
O        0.7065694905373091       -0.4970712136017901        0.8334281648492067       -0.2058946535748549
O        1.1696420799191038       -0.4449053480248456        0.2933252754352787       -0.9992971180892700
N        0.6286946361100837       -0.4709294820515358        0.3218293894258450        0.6691943173322236
N        1.0310396529402812       -1.3640492221931071        1.4718966886235698        0.0628076875181509
N       -1.4876214809613466       -1.2440396791078492       -0.2709845504613603        0.7576134719858190
O       -1.2882942096940666       -0.9971256524796541       -0.1329015721956045       -0.9235083265987739
N       -1.0787417958750081       -0.6095411657795077       -0.1161292226276722        0.9955526175656415
O       -1.3680144416539746       -1.0877494084931048       -0.2826272100723723       -0.9936641819349231
O       -0.3352992720170944        0.1361701771002265       -0.0134258173453717       -0.9934394819660318
N       -0.6209234401695988       -0.1933229452311925        0.0659938144075612        0.8475065253219278
N       -0.1718975943035513        0.3196886910367288        0.1327356824323868        0.9207393412409772
O       -0.5153963777505437        0.3174743031868702        0.3197975295861311       -0.6738758902636315
N       -2.2933082388278434        1.4788928547155518       -0.1676086412236402        0.1207489421105395
N       -0.6078328507279226        0.9242634719183016        0.2224850756957062        0.4308753055723465
O       -0.8932428187315058        0.9180269034863304       -0.1374580024524135       -0.7095764258838037
N       -1.1621283608095809        0.8254112891995593       -0.0091747168737718        0.9977500474782615
O       -1.0492074682543875        0.9294829045571752        0.1630679948858130       -0.9963537733476465
O       -0.3062746442811399        2.3003807107730112        0.0199273454926939       -0.1586318904925156
N       -0.3902300024162083        2.2396644491000881        0.1571508669793949        0.3123697133706422

        RMSE         5.957924477E-01 kcal/mol

Coordinates in bohr
s                   x[bohr]                   y[bohr]                   z[bohr]                      q[e]
+        3.3660226914215881        1.8783505151227324       -2.3491902297624869        0.1158659338886357
-        3.3968591394332859       -0.7753456119226111       -0.6592884310571856       -0.2341991647481463
+        6.3676258541017887       -0.5100414712414331        0.0766163376165506        0.0569852111266852
+        4.0696227295994811       -0.4116028268946501        0.2487153683789480        0.3189271149812888
-        3.6785371490804564        0.2603376207645668        0.3856835895011675       -0.2877498234141676
+        2.7493057596922905       -0.9242773599080514        0.7214484660270272        0.5692545008206258
-        1.3352228257197807       -0.9393284585563313        1.5749509768079195       -0.2058946535748549
-        2.2103031958579633       -0.8407492595184581        0.5543044362471595       -0.9992971180892700
+        1.1880606787924277       -0.8899277454811105        0.6081694051381606        0.6691943173322236
+        1.9483825685442213       -2.5776794515887445        2.7814816264668258        0.0628076875181509
+       -2.8111971773649218       -2.3508942827162755       -0.5120865846022777        0.7576134719858190
-       -2.4345232253349232       -1.8842943958549856       -0.2511475730924535       -0.9235083265987739
+       -2.0385265542882984       -1.1518658655155567       -0.2194524259286205        0.9955526175656415
-       -2.5851726303971194       -2.0555484751807191       -0.5340880226390199       -0.9936641819349231
-       -0.6336237941776942        0.2573243411745174       -0.0253711177931738       -0.9934394819660318
+       -1.1733752467976415       -0.3653274202538372        0.1247102352045836        0.8475065253219278
+       -0.3248393748587716        0.6041240714655223        0.2508340868729549        0.9207393412409772
-       -0.9739580000015341        0.5999394848937480        0.6043297465157846       -0.6738758902636315
+       -4.3337244926406564        2.7947024643088865       -0.3167344281728007        0.1207489421105395
+       -1.1486376179320636        1.7466048296903722        0.4204358600666386        0.4308753055723465
-       -1.6879842909345175        1.7348194233912708       -0.2597579783875719       -0.7095764258838037
+       -2.1961043245573464        1.5598012774482342       -0.0173377021700453        0.9977500474782615
-       -1.9827147637857807        1.7564681279081189        0.3081538501617444       -0.9963537733476465
-       -0.5787751968633731        4.3470895276470074        0.0376572253885680       -0.1586318904925156
+       -0.7374278305033801        4.2323524217235509        0.2969720989693105        0.3123697133706422
