21
s                      x[A]                      y[A]                      z[A]                      q[e]
N -1.8597571947956304 1.5379671696938153 0.1629552511818362 0.0707249461841811
O -1.6298464375395811 -0.0197471353532079 0.3002015555177483 -0.3496602100029151
N -1.4963660831250236 0.2202029084018756 -0.1086288441432309 0.9824851761690530
N -3.0865183818026027 -0.4863923552005990 0.0082841891331767 0.1071394941056757
O -1.5410742330839984 0.1270768417596517 -0.3164788168317889 -0.8194842575378962
N -0.5503472149108083 -0.6541068086537607 -0.1204649439614799 0.3116552922920345
N -0.8951297147591918 -1.9932703726584498 -0.0880312532808864 0.0918298459672651
N -1.3226463471003058 -0.9481184323135314 -0.0690898142482696 0.5593901217632046
O -1.0108200403610774 -0.7797066740729665 -0.0830666203093166 -0.9963138680841535
N 0.7730150115336722 0.7770669466696285 -0.1259840507540813 0.9989733053171830
O 0.7520943788662475 0.8759850433903140 -0.1386050457398290 -0.8354521971080898
N 0.6319373236259930 1.6430091045372408 -0.0245941947603342 0.2899344186932475
O 0.6124276088274830 1.2561848408770699 -0.0214481488603938 -0.8678253524624289
N 0.4749339326258602 -0.4935542786006066 -0.1281624946951709 0.9219570073558310
O 0.5951024572033459 -0.3245117154179470 -0.2951372083092998 -0.9704818863270434
O 0.7671625170078589 -0.3664732805822298 0.3562113732800967 -0.3320651923316272
N 0.6124064194858475 0.2459847497475418 -0.0559207692061208 0.9769593393400061
O 1.4758731214352381 -0.4035335726802189 -0.6162355399070230 -0.1970026432733326
O 1.4816607520532066 -0.6879267951689878 0.3818530934203905 -0.1946060569702309
N 2.7671787646535528 -0.1096339722953709 0.0303408719704456 0.1283355164991325
N 1.5393326291075196 -2.0786285668308788 -0.1341797705973977 0.1235072004109040
