21
s                      x[A]                      y[A]                      z[A]                      q[e]
N 1.6992711796902549 0.5887770361256186 -1.6455166063768125 0.0707249461841811
O 1.5908795288686397 -0.3251762755839626 -0.3552195352479703 -0.3496602100029151
N 1.4631320277745754 0.2058002391469680 -0.3188532779393560 0.9824851761690530
N 3.1090818323750669 -0.3262129095047076 0.0233512575636086 0.1071394941056757
O 1.5449980939855665 0.2852220019479495 -0.1680263118144005 -0.8194842575378962
N 0.5732280438416879 -0.3893252759569084 0.4974743998143780 0.3116552922920345
N 1.0831622181363327 -0.9472158411904795 1.6225023305352009 0.0918298459672651
N 1.3976315461237467 -0.5357006610535577 0.6146119578673630 0.5593901217632046
O 1.0657596444860196 -0.4270894314343991 0.5524978797534027 -0.9963138680841535
N -0.9449062454513715 0.8080682118176731 0.1034569490140824 0.9989733053171830
O -0.9449644332027094 0.9081159248684585 0.1227495375384806 -0.8354521971080898
N -0.9245217630662366 1.6864939633909080 0.0561191515852363 0.2899344186932475
O -0.8410109129765809 1.3082751821905156 0.0562894370805899 -0.8678253524624289
N -0.4581779152970737 -0.4070646290175080 0.1837931295212185 0.9219570073558310
O -0.6481945888713295 -0.2680957885211928 0.3082027054705723 -0.9704818863270434
O -0.6098945787698502 -0.2978821400446023 -0.3650478380558613 -0.3320651923316272
N -0.6857039751374767 0.3060765683195451 0.0803665819166319 0.9769593393400061
O -1.4510545047077399 -0.7959630097008146 0.3325397959269010 -0.1970026432733326
O -1.1984569797972024 -0.7108508065290473 -0.6362775876273686 -0.1946060569702309
N -2.6242287248457674 -0.5265401002803144 -0.5062915895548984 0.1283355164991325
N -1.1762471343383465 -2.1294174041855167 -0.1989514246568287 0.1235072004109040
