21
s                      x[A]                      y[A]                      z[A]                      q[e]
N 1.0898978393153151 0.2656813896715300 0.3981464645837075 0.0707249461841811
O 0.8082275455372299 -0.4878260256539402 0.2878737916629736 -0.3496602100029151
N 0.9577281750463568 -0.0355000298407242 0.4095827356576940 0.9824851761690530
N -0.1900664752858294 -0.6153201332407812 0.3942384551691040 0.1071394941056757
O 0.8778597295683712 0.1387679088960012 0.3986161336672046 -0.8194842575378962
N 0.1515694480010772 -0.2083709917071022 -0.5802318989917676 0.3116552922920345
N 0.5299463407923357 -0.0483399244197845 -0.1310914158460391 0.0918298459672651
N 0.0062427009799854 -0.1112430291104671 -0.2667673825967317 0.5593901217632046
O 0.2709096576818929 -0.0059134203337788 -0.4780742507791796 -0.9963138680841535
N -1.1329865413166087 -0.5123191704848873 0.5316893978327011 0.9989733053171830
O -1.2214694609549692 -0.5233115822644764 0.5810015876037693 -0.8354521971080898
N -1.3082425346537458 -0.4090972613303283 0.1782676462021382 0.2899344186932475
O -1.2407830875422547 -0.3915613029898235 -0.2027379320943602 -0.8678253524624289
N 0.1671352643353730 -0.4211503182228883 0.4630825164464729 0.9219570073558310
O -0.0138217357566655 -0.6130094086991389 0.4264618805654633 -0.9704818863270434
O -0.0712423005347696 -0.0070765443588743 0.1346251890367012 -0.3320651923316272
N -0.5856911286082951 -0.3975864486385787 0.5241782784342545 0.9769593393400061
O 0.1646219871231341 0.5614024171351222 0.3220081893051757 -0.1970026432733326
O 0.0459748868971065 -0.1130557751058688 -0.6331808550627739 -0.1946060569702309
N -0.0160682069812771 0.2673217213713387 0.2074113044629212 0.1283355164991325
N 1.4081610909635591 -0.5919712079105572 -0.9777909732041572 0.1235072004109040
