21
s                      x[A]                      y[A]                      z[A]                      q[e]
N       -1.8597571947956304        1.5379671696938153        0.1629552511818362        0.0707249461841811
O       -1.6298464375395811       -0.0197471353532079        0.3002015555177483       -0.3496602100029151
N       -1.4963660831250236        0.2202029084018756       -0.1086288441432309        0.9824851761690530
N       -3.0865183818026027       -0.4863923552005990        0.0082841891331767        0.1071394941056757
O       -1.5410742330839984        0.1270768417596517       -0.3164788168317889       -0.8194842575378962
N       -0.5503472149108083       -0.6541068086537607       -0.1204649439614799        0.3116552922920345
N       -0.8951297147591918       -1.9932703726584498       -0.0880312532808864        0.0918298459672651
N       -1.3226463471003058       -0.9481184323135314       -0.0690898142482696        0.5593901217632046
O       -1.0108200403610774       -0.7797066740729665       -0.0830666203093166       -0.9963138680841535
N        0.7730150115336722        0.7770669466696285       -0.1259840507540813        0.9989733053171830
O        0.7520943788662475        0.8759850433903140       -0.1386050457398290       -0.8354521971080898
N        0.6319373236259930        1.6430091045372408       -0.0245941947603342        0.2899344186932475
O        0.6124276088274830        1.2561848408770699       -0.0214481488603938       -0.8678253524624289
N        0.4749339326258602       -0.4935542786006065       -0.1281624946951709        0.9219570073558310
O        0.5951024572033459       -0.3245117154179470       -0.2951372083092998       -0.9704818863270434
O        0.7671625170078589       -0.3664732805822298        0.3562113732800967       -0.3320651923316272
N        0.6124064194858474        0.2459847497475418       -0.0559207692061208        0.9769593393400061
O        1.4758731214352381       -0.4035335726802189       -0.6162355399070230       -0.1970026432733326
O        1.4816607520532064       -0.6879267951689878        0.3818530934203905       -0.1946060569702309
N        2.7671787646535528       -0.1096339722953709        0.0303408719704456        0.1283355164991325
N        1.5393326291075196       -2.0786285668308788       -0.1341797705973977        0.1235072004109040

        RMSE         5.597873952E+00 kcal/mol

Coordinates in bohr
s                   x[bohr]                   y[bohr]                   z[bohr]                      q[e]
+       -3.5144317580134659        2.9063367406668359        0.3079407954388585        0.0707249461841811
-       -3.0799633935029167       -0.0373166775799089        0.5672987223649676       -0.3496602100029151
+       -2.8277220805303571        0.4161231889088214       -0.2052787647557500        0.9824851761690530
+       -5.8326744227981981       -0.9191483408455356        0.0156548486331978        0.1071394941056757
-       -2.9122082395287183        0.2401404278138841       -0.5980582883210142       -0.8194842575378962
+       -1.0400055100899084       -1.2360827251528561       -0.2276457518058218        0.3116552922920345
+       -1.6915500076540584       -3.7667350983137333       -0.1663549591816862        0.0918298459672651
+       -2.4994393568568105       -1.7916841715709999       -0.1305608269879835        0.5593901217632046
-       -1.9101730384066642       -1.4734320721895164       -0.1569731625520014       -0.9963138680841535
+        1.4607866626662649        1.4684437103513419       -0.2380753521009925        0.9989733053171830
-        1.4212523965535258        1.6553718220049856       -0.2619255760548321       -0.8354521971080898
+        1.1941884701079373        3.1048372292090960       -0.0464762923732016        0.2899344186932475
-        1.1573204523529619        2.3738453122094838       -0.0405311272441947       -0.8678253524624289
+        0.8974950603495160       -0.9326824146030577       -0.2421920145293148        0.9219570073558310
-        1.1245806607013118       -0.6132382666424303       -0.5577284931367730       -0.9704818863270434
-        1.4497270508617364       -0.6925341325984766        0.6731419382726093       -0.3320651923316272
+        1.1572804103004919        0.4648438080621357       -0.1056749385245041        0.9769593393400061
-        2.7889959954371633       -0.7625679347931449       -1.1645163991979113       -0.1970026432733326
-        2.7999330322204377       -1.2999932372333123        0.7215977667234006       -0.1946060569702309
+        5.2292100053779373       -0.2071781816842821        0.0573359384317222        0.1283355164991325
+        2.9089170849941648       -3.9280387078632750       -0.2535630180058405        0.1235072004109040
