25
s                      x[A]                      y[A]                      z[A]                      q[e]
N        1.7293404218559749        0.6093312689407627       -1.5363148290564939        0.1158659338886357
O        1.7691182348866814       -0.3794850446563199       -0.1765023104598168       -0.2341991647481463
N        3.3872229461026406       -0.1001127283122946        0.0269750122283415        0.0569852111266852
N        2.1741290048871074       -0.0790358883920793        0.0843300937621207        0.3189271149812888
O        1.9123132733356614        0.3290394759570975        0.1842032781033413       -0.2877498234141676
N        1.4467362433518394       -0.2052141641866926        0.5586581088236221        0.5692545008206258
O        0.7162426922817882       -0.3103852574718712        0.8780000293614373       -0.2058946535748549
O        1.1945994372131179       -0.2039311759300958        0.3652495091235550       -0.9992971180892700
N        0.6542931121905031       -0.2754640102445197        0.4192982167882341        0.6691943173322236
N        1.1035287469049939       -0.7516204910733150        1.8516672746453051        0.0628076875181509
N       -1.2258079172559537       -1.3410088507051461       -0.2175877225136292        0.7576134719858190
O       -1.0774015452147452       -1.0889538510942509       -0.0982958403044185       -0.9235083265987739
N       -0.9250764683160352       -0.6812415605078491       -0.0961892982449625        0.9955526175656415
O       -1.1342034234344287       -1.1843097773563633       -0.2267932285995521       -0.9936641819349231
O       -0.3451657535798240        0.1345617190447780        0.0148742030547364       -0.9934394819660318
N       -0.5670615781264657       -0.2072631230152512        0.0695359713337752        0.8475065253219278
N       -0.2222358078318645        0.3368331735145141        0.1429943260798006        0.9207393412409772
O       -0.5684019325693266        0.3086305174745946        0.2846155441322374       -0.6738758902636315
N       -2.4724047346283227        1.1934759721071897       -0.2974057434340066        0.1207489421105395
N       -0.7334118381199393        0.8899454534978036        0.1755579323807739        0.4308753055723465
O       -1.0002583295066214        0.8269814988222387       -0.1648016971861729       -0.7095764258838037
N       -1.2343385410721426        0.7022066550363215       -0.0547392430166446        0.9977500474782615
O       -1.1521543527345970        0.8350940941777942        0.1001691326480054       -0.9963537733476465
O       -0.6324805867980291        2.2628809214837946       -0.0890334330320348       -0.1586318904925156
N       -0.7163898728370620        2.2220572908315499        0.0434343158285441        0.3123697133706422

        RMSE         4.699490130E-01 kcal/mol

Coordinates in bohr
s                   x[bohr]                   y[bohr]                   z[bohr]                      q[e]
+        3.2679797749914976        1.1514692179757293       -2.9032142693963339        0.1158659338886357
-        3.3431489474892002       -0.7171228031075784       -0.3335410272795844       -0.2341991647481463
+        6.4009236940003928       -0.1891856381826047        0.0509753853424413        0.0569852111266852
+        4.1085083806507967       -0.1493561831432813        0.1593607813445876        0.3189271149812888
-        3.6137483526821761        0.6217944940230801        0.3480937470268579       -0.2877498234141676
+        2.7339352757086850       -0.3877985673775851        1.0557108234428612        0.5692545008206258
-        1.3535025277731469       -0.5865431300015496        1.6591795936370481       -0.2058946535748549
-        2.2574657659588473       -0.3853740709504386        0.6902215397014293       -0.9992971180892700
+        1.2364347878135036       -0.5205515367824516        0.7923587946226062        0.6691943173322236
+        2.0853671032201064       -1.4203568784106857        3.4991440245525287        0.0628076875181509
+       -2.3164412460316233       -2.5341394596476907       -0.4111812038128735        0.7576134719858190
-       -2.0359938476009374       -2.0578245418307195       -0.1857522174470902       -0.9235083265987739
+       -1.7481411702230725       -1.2873599746393423       -0.1817714298829604        0.9955526175656415
-       -2.1433338408477476       -2.2380211269054637       -0.4285770891615032       -0.9936641819349231
-       -0.6522687421531322        0.2542847959654331        0.0281081701079001       -0.9934394819660318
+       -1.0715910789289276       -0.3916705384058998        0.1314039416885216        0.8475065253219278
+       -0.4199648120720998        0.6365224479112471        0.2702201137852349        0.9207393412409772
-       -1.0741239817369752        0.5832271519853102        0.5378454294580846       -0.6738758902636315
+       -4.6721678197327696        2.2553427245971345       -0.5620154032284502        0.1207489421105395
+       -1.3859475112152968        1.6817531737072142        0.3317564113513073        0.4308753055723465
-       -1.8902142974754674        1.5627685435946566       -0.3114300726925008       -0.7095764258838037
+       -2.3325617887235284        1.3269782614924897       -0.1034421776163383        0.9977500474782615
-       -2.1772561809225217        1.5780991269833178        0.1892922269293865       -0.9963537733476465
-       -1.1952150887171331        4.2762251961280109       -0.1682488044398361       -0.1586318904925156
+       -1.3537806587136074        4.1990797147484233        0.0820789613625862        0.3123697133706422
