21
s                      x[A]                      y[A]                      z[A]                      q[e]
N       -2.1272795028068563        1.5735979870426404        0.1959348610398294        0.0690680479201058
O       -1.8386079820064951       -0.3228203525514635        0.3821466882429522       -0.3117950550350966
N       -1.9779796805562726       -0.3820584936530489        0.0307246710158234        0.5776243102962968
N       -3.3119079375678475       -0.6061281875106777        0.0468607204587312        0.0604184539076988
O       -1.8593829722227944       -0.2896366720074837       -0.2892361850244402       -0.3968494342195521
O       -0.9232212464032838       -0.1731632170202388        0.0087662551405461       -0.9828651838991298
N       -0.7661697424262068       -0.0159890056680644        0.0092759552328466        0.7759263489545838
N       -0.9923000534242645       -1.3857697133528748       -0.1081583761824930        0.9970342621901004
O       -1.0101255804115368       -1.3703907355228879       -0.3878744588692329       -0.3970377457969525
O       -1.0231421761903485       -1.4265920975771731        0.1611751758377774       -0.3893757401670396
N        1.8196352418846469       -1.2306754823133494       -0.0437205799026904        0.1691966627363242
O        1.4922120928308473       -0.9228632264076694       -0.0185715075649986       -0.6800109224217911
O        0.3841291498537361        0.4098132042750187       -0.3748263650791990       -0.9821368279659007
N        0.2229858591330057        0.4922888501193847       -0.2562922058817182        0.8921713087406896
O        0.5535191868048399        0.4847328195627960        0.3012584784929457       -0.3335771210350215
N        0.7893109482439435       -0.1053553237783059       -0.1009485831284686        0.9988617281482304
N        2.2573554272561229        1.7203626493109139        0.0284355490914161        0.0655379221577991
N        1.0637695420486064        1.1064212552890642        0.0057900884677623        0.9908754307264420
O        0.9418135445469644        1.0831365614911703       -0.3501033157913733       -0.6595771554465193
O        0.9849853252991343        1.1300545741804426        0.3691254766022525       -0.5578053818499882
N       -0.1961955627642109        2.2471539478305522       -0.0544307516374987        0.0943160920587207

        RMSE         7.283660809E+00 kcal/mol

Coordinates in bohr
s                   x[bohr]                   y[bohr]                   z[bohr]                      q[e]
+       -4.0199756526050558        2.9736692270823264        0.3702632257949148        0.0690680479201058
-       -3.4744655380729701       -0.6100420540460073        0.7221525805298947       -0.3117950550350966
+       -3.7378398779719175       -0.7219859169092303        0.0580612135146984        0.5776243102962968
+       -6.2585989547331149       -1.1454162713153289        0.0885539277086405        0.0604184539076988
-       -3.5137245798408419       -0.5473339859832020       -0.5465771752684389       -0.3968494342195521
-       -1.7446353089060245       -0.3272310551714689        0.0165658213615189       -0.9828651838991298
+       -1.4478509787980980       -0.0302148417310346        0.0175290149420875        0.7759263489545838
+       -1.8751753352490312       -2.6187252311911333       -0.2043897091591527        0.9970342621901004
-       -1.9088606992969332       -2.5896631750029702       -0.7329764983230072       -0.3970377457969525
-       -1.9334585004046778       -2.6958683571632673        0.3045769405559073       -0.3893757401670396
+        3.4386122553931915       -2.3256396108879498       -0.0826199220622805        0.1691966627363242
-        2.8198721765465540       -1.7439587491668755       -0.0350950630347156       -0.6800109224217911
-        0.7258988900285102        0.7744347186760886       -0.7083191746005560       -0.9821368279659007
+        0.4213822036112999        0.9302911013421944       -0.4843220772058993        0.8921713087406896
-        1.0459996682472779        0.9160122729946510        0.5692960173237946       -0.3335771210350215
+        1.4915815200064717       -0.1990927077999330       -0.1907651748658185        0.9988617281482304
+        4.2657835253299137        3.2510142436646778        0.0537354000097876        0.0655379221577991
+        2.0102330950755611        2.0908331518815899        0.0109416814462425        0.9908754307264420
-        1.7797696604404387        2.0468314576884241       -0.6615993824603704       -0.6595771554465193
-        1.8613525024103514        2.1354936520219039        0.6975460567073488       -0.5578053818499882
+       -0.3707558806544304        4.2465055231410922       -0.1028592133976877        0.0943160920587207
