25
s                      x[A]                      y[A]                      z[A]                      q[e]
N 0.0792572740838082 -0.0065392960194268 0.2404457529931467 0.1158659338886357
O -0.1622125064200356 0.4185193054352176 0.2930308393758531 -0.2341991647481463
N -0.0803929235955592 -0.0140470809964718 -0.3909582860980386 0.0569852111266852
N -0.5148799653383572 0.0013470089507474 0.1564850656134830 0.3189271149812888
O -0.2365911244459324 -0.3756646835868808 0.2654389583425719 -0.2877498234141676
N -0.0044239031249852 0.1236136421004748 -0.5522257121603408 0.5692545008206258
O -0.1501462778241134 -0.4908344882752411 0.0522755321241520 -0.2058946535748549
O -0.0356663789762461 0.1484344764986458 -0.2543800874410496 -0.9992971180892700
N -0.1927864510347021 -0.0071007598843207 0.2369572776717771 0.6691943173322236
N 0.0160651691471527 0.0003583082517500 0.4051833042183221 0.0628076875181509
N 0.0596598653865156 0.0026532894836156 0.2642960513172179 0.7576134719858190
O 0.0238215580313523 -0.0711484498934631 -0.0711574751905846 -0.9235083265987739
N 0.0985482755077493 -0.0077645725877012 -0.5075543051071503 0.9955526175656415
O 0.0563080069835566 0.0495911849541926 0.0745950672677810 -0.9936641819349231
O -0.0431538597526266 0.1049164939516977 -0.1244455580101946 -0.9934394819660318
N -0.0350058966879645 -0.0468547259036845 0.2787965472961437 0.8475065253219278
N -0.0856992424396120 0.0233202333353509 -0.3961471342451551 0.9207393412409772
O 0.1530826002255748 -0.2456357672194082 -0.2258182105983728 -0.6738758902636315
N -0.0664851929960482 0.0252205743044497 0.2132449355470002 0.1207489421105395
N 0.2698656768618528 0.0752674126219934 -0.4892386388072114 0.4308753055723465
O 0.3539161715386017 -0.2038191150330379 -0.1279247319750868 -0.7095764258838037
N 0.4520454207055775 -0.0054791115658182 0.0826339987555994 0.9977500474782615
O 0.3127069150958868 0.1172680001359783 -0.0422977147149578 -0.9963537733476465
O -0.0249334701301555 -0.3626756325595148 -0.1399247878384977 -0.1586318904925156
N -0.0382456461140196 -0.2006232851337646 -0.0755493607698744 0.3123697133706422
