25
s                      x[A]                      y[A]                      z[A]                      q[e]
N -1.7318617161836825 0.6333794799637514 -1.5253171692895218 0.1158659338886357
O -1.8584497540770348 0.4113877462488289 0.1972501943110082 -0.2341991647481463
N -3.3902295430990490 -0.0844697824170571 0.0320688423233103 0.0569852111266852
N -2.1726946083595360 -0.1183788857008188 0.0709400170260522 0.3189271149812888
O -1.8428459377917137 -0.3081281518607212 -0.1228307917629636 -0.2877498234141676
N -1.3876906534862687 -0.1965229130644634 0.7686699250764137 0.5692545008206258
O -1.0117820555604911 -0.2406000653402201 0.0033827245164163 -0.2058946535748549
O -1.1032574742862848 -0.2314633806527361 0.6380605662225216 -0.9992971180892700
N -0.6644008303687604 -0.2737813936024971 0.3829585385683337 0.6691943173322236
N -1.0964877035207248 -0.7828879488173229 1.8262765079134429 0.0628076875181509
N 1.2342748556749690 -1.3480522685264495 -0.2140892610444460 0.7576134719858190
O 1.0510799183576491 -1.0879001890871067 -0.2161133141064815 -0.9235083265987739
N 0.9282646714560716 -0.6855877235314217 -0.1111584358034533 0.9955526175656415
O 1.1608052418406656 -1.1936338755634224 -0.1498182471980603 -0.9936641819349231
O 0.4072203981370460 0.1228021846037309 0.1940185938863225 -0.9934394819660318
N 0.5431031007566320 -0.2065504699650846 -0.0180311573874713 0.8475065253219278
N 0.2320163954568635 0.3394912024595040 0.1763350816928374 0.9207393412409772
O 0.4359608334297982 0.3333703869014590 -0.1378240959546754 -0.6738758902636315
N 2.4596384901204842 1.1994694772669676 -0.3326038466905516 0.1207489421105395
N 0.6987168688189211 0.9053501666607147 0.0406188985746483 0.4308753055723465
O 1.0998220296557912 0.7936151835074094 0.1939407083265491 -0.7095764258838037
N 1.2419538760916404 0.7036411328889853 -0.0418859375810996 0.9977500474782615
O 1.0997421297081202 0.8566973419167575 -0.1090848470545386 -0.9963537733476465
O 0.8161253219103666 2.2017555457045934 0.5866752961274511 -0.1586318904925156
N 0.8079420200023386 2.1818362872798094 0.4134326989613029 0.3123697133706422
