21
s                      x[A]                      y[A]                      z[A]                      q[e]
N -1.9437501747764263 1.4368692972356496 -0.1767446228536416 0.0707249461841811
O -1.6295892965342365 -0.0502735958315887 0.2798897568685141 -0.3496602100029151
N -1.4812130785496824 0.1263392643160548 -0.2163808747184296 0.9824851761690530
N -3.0442461346201402 -0.6527681656636959 0.0503166564587061 0.1071394941056757
O -1.5296355832252222 0.0017350235827798 -0.3500983874341035 -0.8194842575378962
N -0.5000058538808319 -0.6344777426669325 -0.0795528380382254 0.3116552922920345
N -0.7469400383435928 -2.0019520701439335 0.2349557171809505 0.0918298459672651
N -1.2632514522179723 -0.9788133431281651 0.0371484995502610 0.5593901217632046
O -0.9634652228310756 -0.7916896785339660 0.0070018803674090 -0.9963138680841535
N 0.7245556316956976 0.8840444422227312 -0.0649609946186885 0.9989733053171830
O 0.6964490839832954 0.9811945078234072 -0.0771615057379287 -0.8354521971080898
N 0.5206302400431668 1.7328512630901500 0.0412010072195197 0.2899344186932475
O 0.5289035489410840 1.3462513286795221 0.0409803047577670 -0.8678253524624289
N 0.5207489607895872 -0.4064259211405205 -0.0746571018258493 0.9219570073558310
O 0.6304747976062186 -0.2300291346487071 -0.2410830396350124 -0.9704818863270434
O 0.7969966117870360 -0.2563032273121055 0.4124012167023945 -0.3320651923316272
N 0.6036658219437755 0.3413852084494330 -0.0050686121674959 0.9769593393400061
O 1.4864855950484563 -0.5522689637455125 -0.5547924143070777 -0.1970026432733326
O 1.5324067971599025 -0.5252940898869854 0.4485566390410022 -0.1946060569702309
N 2.7683119189622611 -0.0124055290070800 -0.0905882566455259 0.1283355164991325
N 1.6965325834409231 -1.9106894291638103 -0.0586650534724667 0.1235072004109040
