21
s                      x[A]                      y[A]                      z[A]                      q[e]
N 0.0277749134741258 -0.0476537484337866 0.3746851431283791 0.0707249461841811
O 0.1106813626854498 0.2811442202204341 0.3062253895007683 -0.3496602100029151
N 0.3667905828338488 -0.1692388592096819 0.3234894126439082 0.9824851761690530
N 0.0382066772657712 -0.0155105240588445 -0.1884283197599871 0.1071394941056757
O 0.2645275965584013 -0.3383210622106095 0.3138344565888644 -0.8194842575378962
N 0.0875659060269747 0.1238232315366606 0.2884253293734317 0.3116552922920345
N 0.0293840363492406 -0.0109762889301166 0.2478886411027346 0.0918298459672651
N 0.0731934998375840 0.0365478209193537 -0.5515736919378545 0.5593901217632046
O 0.0650514308772415 0.0621532035671674 -0.1944250186237776 -0.9963138680841535
N 0.2175672157184287 0.0841820235292927 -0.4238525900874448 0.9989733053171830
O 0.2057509759821717 0.0985839010912613 -0.3362758601339622 -0.8354521971080898
N 0.0284204705067758 0.0077389167430637 0.4280878708990684 0.2899344186932475
O 0.0413407050133355 -0.0032639740906296 0.0351437571364242 -0.8678253524624289
N -0.0054254064839763 0.0765276805152071 -0.3403814992777139 0.9219570073558310
O 0.1249049576752358 0.2419614609786602 -0.1886862118012882 -0.9704818863270434
O 0.2623538414006153 -0.4174446272439749 -0.2066262010892008 -0.3320651923316272
N 0.0840441036125399 0.0127527423186865 0.4022883464030757 0.9769593393400061
O 0.1950492970904442 -0.5141827137492424 -0.0984299974248631 -0.1970026432733326
O 0.2267031476557641 0.4896567347629555 -0.0761267923794443 -0.1946060569702309
N 0.0232759437397150 -0.0010566356403470 0.1852151316723057 0.1283355164991325
N 0.0356487213477732 0.0051485124859452 -0.1446939154844192 0.1235072004109040
