21
s                      x[A]                      y[A]                      z[A]                      q[e]
N -1.9240745680328093 1.4553994958471701 -0.2951327766635326 0.0707249461841811
O -1.6269968081203667 0.0207125411712655 0.3117414464724963 -0.3496602100029151
N -1.4859203058933375 0.1342062664275450 -0.2046970678304883 0.9824851761690530
N -3.0519967214305663 -0.5923988513671512 0.1578288229444101 0.1071394941056757
O -1.5406451742590803 -0.0036884678086499 -0.3219214681356991 -0.8194842575378962
N -0.5344111504937624 -0.5759027144684938 -0.0769974202310469 0.3116552922920345
N -0.8908456693100179 -1.9086912312796374 0.0992127906392120 0.0918298459672651
N -1.3206502530097055 -0.8666295442442012 0.0327114465229678 0.5593901217632046
O -1.0091287222648619 -0.6998178276427597 0.0023131749240586 -0.9963138680841535
N 0.7835688835723891 0.8607678856129367 -0.1305789087589684 0.9989733053171830
O 0.7617461868642340 0.9580217327332834 -0.1516128068944071 -0.8354521971080898
N 0.6290011690905899 1.7266453474733980 -0.1010662773797291 0.2899344186932475
O 0.6131875757868018 1.3407333063460758 -0.0694077787579245 -0.8678253524624289
N 0.5023176455501297 -0.4086368584532467 -0.0513674170111807 0.9219570073558310
O 0.6278712052563948 -0.2491396011939999 -0.2235594809899564 -0.9704818863270434
O 0.7720148556070577 -0.2472001649882128 0.4357434558114800 -0.3320651923316272
N 0.6291085811350430 0.3356419300910441 -0.0211615753288006 0.9769593393400061
O 1.4716800374965975 -0.6398602660864500 -0.4887848653326483 -0.1970026432733326
O 1.4879079461244835 -0.5572287851759252 0.5124415909806228 -0.1946060569702309
N 2.7704413919894044 -0.1436867780171724 -0.0148380191733488 0.1283355164991325
N 1.5817730070555560 -1.9771853374394235 0.0900151415377574 0.1235072004109040
