21
s                      x[A]                      y[A]                      z[A]                      q[e]
N 0.0277244398000085 -0.0467135384437111 0.3732233888389019 0.0707249461841811
O 0.1128849740033563 0.2820303612881425 0.3031861883725793 -0.3496602100029151
N 0.3639161189526827 -0.1699740492643722 0.3268944256557165 0.9824851761690530
N 0.0395740186615691 -0.0142788673683356 -0.1882365730520903 0.1071394941056757
O 0.2672816416736830 -0.3367839290011163 0.3118729710582104 -0.8194842575378962
N 0.0856346545966085 0.1270620374840485 0.2880411812990390 0.3116552922920345
N 0.0297489998255167 -0.0105333359860924 0.2497838525132151 0.0918298459672651
N 0.0700232933414913 0.0394200456472967 -0.5514498850976689 0.5593901217632046
O 0.0680951448822431 0.0583133406466927 -0.1936538671260149 -0.9963138680841535
N 0.2166057282047104 0.0866547917975181 -0.4260568227302951 0.9989733053171830
O 0.2058335811570303 0.0957309744150574 -0.3359482779887283 -0.8354521971080898
N 0.0279650136312709 0.0094126300104008 0.4259931184393953 0.2899344186932475
O 0.0417373473931561 -0.0056654772519370 0.0355553405789618 -0.8678253524624289
N -0.0060948926129649 0.0803008665140831 -0.3395489923305771 0.9219570073558310
O 0.1250558226356190 0.2376151173047056 -0.1893112189173113 -0.9704818863270434
O 0.2623680437897707 -0.4203437791435953 -0.2074668881891583 -0.3320651923316272
N 0.0830666632695063 0.0159891147217306 0.4013599165585103 0.9769593393400061
O 0.1954003255212521 -0.5113103143175559 -0.0988285898558824 -0.1970026432733326
O 0.2265964189273187 0.4920853200236498 -0.0770920092811389 -0.1946060569702309
N 0.0227631686924549 -0.0025029891551440 0.1854554287931182 0.1283355164991325
N 0.0345922231240522 0.0026736579352740 -0.1437789318386635 0.1235072004109040
