21
s                      x[A]                      y[A]                      z[A]                      q[e]
N       -1.7215483245625978        0.4042835469892288       -1.7484464344851161        0.0707249461841811
O       -1.6545808287973518        0.3915336400815825       -0.1772480803349150       -0.3496602100029151
N       -1.4560565815619988       -0.0104634099776520       -0.4361104620086002        0.9824851761690530
N       -3.1341341995523120        0.0429227620998276        0.1177204069771891        0.1071394941056757
O       -1.5200992995745890       -0.1888786529149429       -0.4047421135177095       -0.8194842575378962
N       -0.6073315805518016        0.0994241736857123        0.5417365529061886        0.3116552922920345
N       -1.0975436934881666       -0.2592861513491120        1.7998899392382377        0.0918298459672651
N       -1.4351927175295720        0.0638882112614473        0.7024925650300181        0.5593901217632046
O       -1.0875121298999177        0.0713343785488956        0.6151062194936010       -0.9963138680841535
N        1.0633118035040443       -0.7314613572554288       -0.0343511588377787        0.9989733053171830
O        1.0906912254433001       -0.8191333223413931       -0.0360222675269632       -0.8354521971080898
N        1.1936224129979771       -1.5859355012288718       -0.1778950985114999        0.2899344186932475
O        1.0556606652298246       -1.2224782579840470       -0.1419999752080347       -0.8678253524624289
N        0.3861171221985554        0.3552382061802387        0.1955540053450186        0.9219570073558310
O        0.6039419318867018        0.2653953213214502        0.2899099467196446       -0.9704818863270434
O        0.5253911474154199        0.3536073513856149       -0.3718847080732280       -0.3320651923316272
N        0.7227806276990053       -0.2868565952099502        0.0079663141757340        0.9769593393400061
O        1.3055872617247433        0.8795308001721900        0.4627504965587843       -0.1970026432733326
O        1.0692433851107825        0.9127907168237651       -0.5125902410245752       -0.1946060569702309
N        2.5100881126308847        0.9352957974645321       -0.3748608412952258        0.1283355164991325
N        0.8234303636757647        2.2100081231850548        0.1484539593645310        0.1235072004109040

        RMSE         5.748481721E-01 kcal/mol

Coordinates in bohr
s                   x[bohr]                   y[bohr]                   z[bohr]                      q[e]
+       -3.2532548451640935        0.7639851808383031       -3.3040849062101127        0.0707249461841811
-       -3.1267046188600216        0.7398913486577686       -0.3349503280961368       -0.3496602100029151
+       -2.7515481623225262       -0.0197729791961451       -0.8241293336431355        0.9824851761690530
+       -5.9226552775848624        0.0811122649168553        0.2224593285643223        0.1071394941056757
-       -2.8725713596962463       -0.3569289249546489       -0.7648517459874337       -0.8194842575378962
+       -1.1476903545843349        0.1878844585159472        1.0237337171422916        0.3116552922920345
+       -2.0740569914160671       -0.4899798141738295        3.4012990411272006        0.0918298459672651
+       -2.7121211733824495        0.1207312219295261        1.3275185530771074        0.5593901217632046
-       -2.0551000836241617        0.1348024387871465        1.1623822929086551       -0.9963138680841535
+        2.0093680945892731       -1.3822616365684257       -0.0649142822955021        0.9989733053171830
-        2.0611077035278180       -1.5479376394615991       -0.0680722200439336       -0.8354521971080898
+        2.2556194577742907       -2.9969837499632548       -0.3361730152480754        0.2899344186932475
-        1.9949095387029900       -2.3101491019166285       -0.2683410629649871       -0.8678253524624289
+        0.7296556133052028        0.6713029189795715        0.3695435128384014        0.9219570073558310
-        1.1412848469457724        0.5015244722754193        0.5478504003461994       -0.9704818863270434
-        0.9928453773551842        0.6682210500673428       -0.7027602485042367       -0.3320651923316272
+        1.3658574351376183       -0.5420804022281238        0.0150541520214896        0.9769593393400061
-        2.4672023575461943        1.6620723312302159        0.8744717029157174       -0.1970026432733326
-        2.0205771593168116        1.7249244646572472       -0.9686551701188647       -0.1946060569702309
+        4.7433790836397147        1.7674529034996398       -0.7083843252066889        0.1283355164991325
+        1.5560578707333332        4.1763100878568205        0.2805373254388090        0.1235072004109040
