21
s                      x[A]                      y[A]                      z[A]                      q[e]
N       -1.9240182400291641        1.4555821167914698       -0.2950913578535882        0.0707249461841811
O       -1.6267183023731264        0.0190005559550179        0.3112728658631909       -0.3496602100029151
N       -1.4865279711128638        0.1387664277736561       -0.2041290485271990        0.9824851761690530
N       -3.0521019591609289       -0.5918858163580120        0.1579435439649260        0.1071394941056757
O       -1.5400186506263940       -0.0076827926184290       -0.3222365144711630       -0.8194842575378962
N       -0.5347274712011866       -0.5739008929506738       -0.0767695846448227        0.3116552922920345
N       -0.8909133678004496       -1.9073959062228178        0.0994753714379451        0.0918298459672651
N       -1.3214122576048661       -0.8628262557517377        0.0332421345032330        0.5593901217632046
O       -1.0079970755828620       -0.7061284745454959        0.0015179901551414       -0.9963138680841535
N        0.7823292647069817        0.8660037526557374       -0.1300631719252997        0.9989733053171830
O        0.7627569219114682        0.9536057288942079       -0.1520083215048842       -0.8354521971080898
N        0.6286858915869062        1.7280846528495946       -0.1009073899099454        0.2899344186932475
O        0.6141477597962234        1.3363199626230080       -0.0698911289655245       -0.8678253524624289
N        0.5011492913587487       -0.4031223426997520       -0.0507465752081394        0.9219570073558310
O        0.6291056433782595       -0.2548355189109541       -0.2239473227190771       -0.9704818863270434
O        0.7725210174223053       -0.2491537528651068        0.4353266763616970       -0.3320651923316272
N        0.6278462475839338        0.3409873815396475       -0.0205256412232615        0.9769593393400061
O        1.4720475812211129       -0.6410617874337852       -0.4887624637238822       -0.1970026432733326
O        1.4883271168038990       -0.5584043720057698        0.5121793794830388       -0.1946060569702309
N        2.7698989623722330       -0.1423769479312669       -0.0149366225357509        0.1283355164991325
N        1.5815277862547845       -1.9764368337807403        0.0900596712570559        0.1235072004109040

        RMSE         8.103018897E+00 kcal/mol

Coordinates in bohr
s                   x[bohr]                   y[bohr]                   z[bohr]                      q[e]
+       -3.6358675340405018        2.7506515538500480       -0.5576418483327507        0.0707249461841811
-       -3.0740520747549041        0.0359058469864205        0.5882204667678019       -0.3496602100029151
+       -2.8091307432357984        0.2622305439003347       -0.3857479959666968        0.9824851761690530
+       -5.7676368097874287       -1.1185020904596696        0.2984700413779177        0.1071394941056757
-       -2.9102134777810083       -0.0145183739275198       -0.6089387599726263       -0.8194842575378962
+       -1.0104884723288807       -1.0845155108324647       -0.1450734897438676        0.3116552922920345
+       -1.6835822666521287       -3.6044558755805687        0.1879812082459063        0.0918298459672651
+       -2.4971072656961253       -1.6305053172250163        0.0628185300367425        0.5593901217632046
-       -1.9048384081140235       -1.3343894262783065        0.0028685856543585       -0.9963138680841535
+        1.4783880502269962        1.6365099161380658       -0.2457837739471520        0.9989733053171830
-        1.4414016827098979        1.8020536592776397       -0.2872540964347726       -0.8354521971080898
+        1.1880441540385245        3.2656067154926003       -0.1906873309645835        0.2899344186932475
-        1.1605710665783222        2.5252787453395267       -0.1320750923438940       -0.8678253524624289
+        0.9470349086353045       -0.7617908227554852       -0.0958971289483315        0.9219570073558310
-        1.1888373699648525       -0.4815693377806325       -0.4231991064685755       -0.9704818863270434
-        1.4598531490881923       -0.4708323560450555        0.8226481934294236       -0.3320651923316272
+        1.1864574568300235        0.6443727633469282       -0.0387878404613714        0.9769593393400061
-        2.7817667721505415       -1.2114312077463167       -0.9236271968421542       -0.1970026432733326
-        2.8125306358516524       -1.0552313303491749        0.9678787543298776       -0.1946060569702309
+        5.2343504340733382       -0.2690534381686640       -0.0282261258319105        0.1283355164991325
+        2.9886543758231503       -3.7349243201126159        0.1701881136246020        0.1235072004109040
