21
s                      x[A]                      y[A]                      z[A]                      q[e]
N -0.4655388763391198 0.1658727367274296 -0.1940367808470301 0.0690680479201058
O 0.9323583723581003 -0.6905338968437820 -0.5114350796403687 -0.3117950550350966
N 1.0721814345271747 -0.3905846784933168 -0.3184626839987916 0.5776243102962968
N 1.6536845610725841 0.6705705758340660 1.0007061639442316 0.0604184539076988
O 1.0658692615706031 -0.0434081282569541 -0.3862948186341880 -0.3968494342195521
O 0.2619964629446834 -0.1452425294657916 0.3820965929324018 -0.9828651838991298
N 0.1983199900042854 -0.0894085371367724 0.1807223546162086 0.7759263489545838
N -0.2486109679812275 -0.1443033162157652 0.1291601758237164 0.9970342621901004
O -0.1786593336622299 0.1225693448500488 0.1809920955305836 -0.3970377457969525
O -0.2761768343520687 -0.4170937950016076 0.1172670316067768 -0.3893757401670396
N -0.5797239066625376 1.1576380707335694 0.5110629525491245 0.1691966627363242
O -0.7617048866710582 0.6342781137018404 -0.4928836483466091 -0.6800109224217911
O -0.4621286646956033 0.6504926651302869 -0.6381461643771282 -0.9821368279659007
N -0.3250116079852065 0.4925701697144527 -0.6531892829143346 0.8921713087406896
O 0.5664963838165136 0.0646242568943209 0.4543626730300788 -0.3335771210350215
N -0.0347339296317963 0.4928147358396751 0.2769715241878911 0.9988617281482304
N 0.1932352831631388 -1.5921743884955566 -0.3630309819453146 0.0655379221577991
N 1.2016214882906382 0.5318471580103685 0.1344216618977076 0.9908754307264420
O 1.0083177328278392 -0.7612681094995318 0.5964108338398895 -0.6595771554465193
O 1.2566831215138301 0.1636594010222408 0.1050950871691654 -0.5578053818499882
N 0.3673728856077065 -0.3924987400651686 -0.3044843402013499 0.0943160920587207
