21
s                      x[A]                      y[A]                      z[A]                      q[e]
N 0.0271919951167638 -0.0474897089185802 0.3752174526119921 0.0707249461841811
O 0.1093674806103453 0.2824226647312473 0.3076363200121512 -0.3496602100029151
N 0.3683700371850978 -0.1708915275355617 0.3220141635225919 0.9824851761690530
N 0.0373995157715182 -0.0152330273465480 -0.1885298525917115 0.1071394941056757
O 0.2629512674539567 -0.3370339086608079 0.3151196434219677 -0.8194842575378962
N 0.0891568032765106 0.1234618050196706 0.2889666168382398 0.3116552922920345
N 0.0296296380461277 -0.0117413909144570 0.2470465157026217 0.0918298459672651
N 0.0755043210980421 0.0363124770255929 -0.5511814155582031 0.5593901217632046
O 0.0626929462248127 0.0625598922565058 -0.1952871544038526 -0.9963138680841535
N 0.2187475859279581 0.0836980836237736 -0.4235179636813792 0.9989733053171830
O 0.2048071112749623 0.0994703710005018 -0.3359286971604981 -0.8354521971080898
N 0.0292840365288634 0.0069036416665528 0.4289736580116794 0.2899344186932475
O 0.0402092710849712 -0.0025141986969539 0.0353518503180264 -0.8678253524624289
N -0.0044462477920680 0.0762225443743442 -0.3413751492113318 0.9219570073558310
O 0.1241258355688577 0.2426505123094778 -0.1877354041761317 -0.9704818863270434
O 0.2618262647834767 -0.4172292077261103 -0.2059512645200680 -0.3320651923316272
N 0.0852100461061483 0.0122119403291322 0.4019963731294281 0.9769593393400061
O 0.1953366258114233 -0.5146313478389217 -0.0982508663559382 -0.1970026432733326
O 0.2271064410161588 0.4895093073420643 -0.0750255314949417 -0.1946060569702309
N 0.0232625167405932 -0.0008075885932887 0.1848055348278718 0.1283355164991325
N 0.0361707685829507 0.0053809941375417 -0.1452765647644096 0.1235072004109040
