21
s                      x[A]                      y[A]                      z[A]                      q[e]
N        1.9783467039151184        1.3651773990627249       -0.9809001613190355        0.0690680479201058
O        1.8244499391697135       -0.4103288834022191       -0.2827373797457406       -0.3117950550350966
N        1.9791328821826075       -0.3091006049701345        0.0523912185856581        0.5776243102962968
N        3.3309246436702482       -0.4282952194330825        0.0974640719187621        0.0604184539076988
O        1.8655373834795144       -0.0954698987497605        0.3100734093424387       -0.3968494342195521
O        0.9246569722654441       -0.0905990953645764        0.2146031834507832       -0.9828651838991298
N        0.7595554344492113        0.0567532906026123        0.1965273940252065        0.7759263489545838
N        1.0526568180196574       -1.2012767747958477        0.6572903320664509        0.9970342621901004
O        1.0784737884510189       -1.0689446639264930        0.9032605259371388       -0.3970377457969525
O        1.0764255318942599       -1.3518933531117066        0.4292711022838895       -0.3893757401670396
N       -1.7349894305073579       -1.3038512083990426       -0.1536051484302958        0.1691966627363242
O       -1.4255631974677756       -0.9778950333615027       -0.1244500848038237       -0.6800109224217911
O       -0.4587073324714884        0.3892666121740283        0.4202307122299191       -0.9821368279659007
N       -0.2865036564633444        0.4862433480584872        0.3307947822285203        0.8921713087406896
O       -0.5284299115596991        0.4943758803414418       -0.2691910710830122       -0.3335771210350215
N       -0.7870205228728198       -0.1289869956359173        0.0611299032437735        0.9988617281482304
N       -2.3108049229674021        1.6483636158722639       -0.1499587928062311        0.0655379221577991
N       -1.1064047633598189        1.0764398232957877        0.0124751141870711        0.9908754307264420
O       -1.0442251278225207        1.0186898087290592        0.3808566598099285       -0.6595771554465193
O       -0.9700114619766327        1.1427074839604483       -0.3264123846416409       -0.5578053818499882
N        0.0703817846954755        2.2397309554998466        0.4036930035569845        0.0943160920587207

        RMSE         5.508007067E-01 kcal/mol

Coordinates in bohr
s                   x[bohr]                   y[bohr]                   z[bohr]                      q[e]
+        3.7385334516017816        2.5798113968933984       -1.8536326613103795        0.0690680479201058
-        3.4477107146389532       -0.7754092109951124       -0.5342962131490170       -0.3117950550350966
+        3.7400191132131231       -0.5841154886068829        0.0990050545058898        0.5776243102962968
+        6.2945353210749753       -0.8093606655713892        0.1841804029983854        0.0604184539076988
-        3.5253547315794771       -0.1804119618622362        0.5859538224441857       -0.3968494342195521
-        1.7473484375767441       -0.1712074774532853        0.4055412423733641       -0.9828651838991298
+        1.4353517482121454        0.1072481759574568        0.3713829508575774        0.7759263489545838
+        1.9892330901530533       -2.2700841052374332        1.2420987125168237        0.9970342621901004
-        2.0380200936573694       -2.0200126580906317        1.7069150139581895       -0.3970377457969525
-        2.0341494497304216       -2.5547081882079770        0.8112048168899456       -0.3893757401670396
+       -3.2786548542229532       -2.4639216922214300       -0.2902716619935574        0.1691966627363242
-       -2.6939240177460522       -1.8479537924986862       -0.2351765765692280       -0.6800109224217911
-       -0.8668312301104415        0.7356072867937216        0.7941209556206287       -0.9821368279659007
+       -0.5414134446579764        0.9188667581562071        0.6251115421423677        0.8921713087406896
-       -0.9985878093477331        0.9342350168774356       -0.5086973997655434       -0.3335771210350215
+       -1.4872532433442478       -0.2437500954975078        0.1155187752064680        0.9988617281482304
+       -4.3667884337680638        3.1149557891679489       -0.2833810485080523        0.0655379221577991
+       -2.0908019866520355        2.0341764565652580        0.0235745491973779        0.9908754307264420
-       -1.9732995049057573        1.9250447452929413        0.7197147800974263       -0.6595771554465193
-       -1.8330560016907855        2.1594041861962414       -0.6168300109302983       -0.5578053818499882
+        0.1330022972953880        4.2324781006046841        0.7628692154861735        0.0943160920587207
