21
s                      x[A]                      y[A]                      z[A]                      q[e]
N -1.6357990948002354 -1.8238808330284437 -0.7031770829390557 0.0707249461841811
O -1.5762850636868002 -0.2482294738799284 -0.5411068084452662 -0.3496602100029151
N -1.4795704292025582 -0.5674077743490102 -0.1078584995462327 0.9824851761690530
N -3.1166116873626781 -0.0058815608440616 -0.4448636453523110 0.1071394941056757
O -1.5760949575700001 -0.5083248238357040 0.0438358743717605 -0.8194842575378962
N -0.5680316888242574 0.1888419235911101 0.7038428932037031 0.3116552922920345
N -0.5729403604282801 0.2459545586655933 2.2805606183631788 0.0918298459672651
N -1.4931483737377500 0.4872203989578530 0.0839414530454752 0.5593901217632046
O -0.9105179043474756 0.3641101373055944 1.0180473936034546 -0.9963138680841535
N 1.1335023930485888 0.5853307765339799 -0.2409381160640425 0.9989733053171830
O 1.1622871773077315 0.6795332744844840 -0.2656970741729155 -0.8354521971080898
N 1.5213652984858266 1.3735347006513108 -0.2898968697811847 0.2899344186932475
O 1.3127488044910272 1.0628046920862431 -0.1894430720668370 -0.8678253524624289
N 0.2750777701527655 -0.3213682712845798 0.1835038393012838 0.9219570073558310
O 0.3624865929116650 -0.2370833391589810 -0.0536400994610336 -0.9704818863270434
O 0.7857677875437730 -0.4061635343163631 0.4442673142340953 -0.3320651923316272
N 0.7807360816764225 0.2143688681979342 0.0153074030978188 0.9769593393400061
O 0.6253589219528819 -1.0043277428520421 -0.5543614064016482 -0.1970026432733326
O 1.1363259781482051 -1.0519089868687108 0.3095382744494987 -0.1946060569702309
N 2.0236162479630373 -1.3928105589224251 -0.7780804568419841 0.1283355164991325
N 0.2301596941527470 -2.2171633121251362 0.1571145067619698 0.1235072004109040
