25
s                      x[A]                      y[A]                      z[A]                      q[e]
N        1.6779901032101674        0.1220596972552510       -1.6443692237691476        0.1158659338886357
O        1.8132767187861834       -0.5623961499456279       -0.0883440078421540       -0.2341991647481463
N        3.3689652461852395       -0.1532243560408504        0.0243227035780841        0.0569852111266852
N        2.1681660041272455       -0.0992814205220992        0.1273547492262986        0.3189271149812888
O        1.8827584964599773        0.2071383792726702        0.0419468873012930       -0.2877498234141676
N        1.4163005647050455       -0.2614468954186019        0.7796609743135477        0.5692545008206258
O        1.0296316849478386       -0.0245983500391886        0.0130618428562438       -0.2058946535748549
O        1.1371373930535416       -0.1379884226554007        0.7204457157225260       -0.9992971180892700
N        0.7086397917429914        0.0160034069532320        0.4305132162684320        0.6691943173322236
N        1.1542188504304804       -0.3640587193539496        1.9464036552570958        0.0628076875181509
N       -1.0527199629098021        1.5268216257682705       -0.0568168041951773        0.7576134719858190
O       -0.9070630503297290        1.2080283886556800       -0.0961094929177824       -0.9235083265987739
N       -0.8624282771963003        0.7815646195006970       -0.0215369052856384        0.9955526175656415
O       -1.0164086919991462        1.3410568165485957        0.0027165969368475       -0.9936641819349231
O       -0.4518589994225564       -0.1811229670274900        0.2170656831904343       -0.9934394819660318
N       -0.5383120443564757        0.2119556653918909        0.0261741103334701        0.8475065253219278
N       -0.3055711137696171       -0.4329116900673499        0.1677778403128000        0.9207393412409772
O       -0.4982656883347603       -0.3396162704831526       -0.1792260079579133       -0.6738758902636315
N       -2.6203976344945419       -0.8061235335027035       -0.5021676565886231        0.1207489421105395
N       -0.8498968382592355       -0.8787633541817425       -0.0761642318983271        0.4308753055723465
O       -1.2483335715548323       -0.7160674597444039        0.1076254596570785       -0.7095764258838037
N       -1.3851795057559184       -0.5691315039838027       -0.1375315471557175        0.9977500474782615
O       -1.2539651032666781       -0.7400954528431376       -0.2391079147237031       -0.9963537733476465
O       -1.1899873677627106       -2.2145737106410124        0.2910569984652228       -0.1586318904925156
N       -1.1600783987530070       -2.1642863325491213        0.1296239870749710        0.3123697133706422

        RMSE         6.729509095E-01 kcal/mol

Coordinates in bohr
s                   x[bohr]                   y[bohr]                   z[bohr]                      q[e]
+        3.1709417362959309        0.2306593987687209       -3.1074074820553679        0.1158659338886357
-        3.4265963881746981       -1.0627746974091512       -0.1669459796469697       -0.2341991647481463
+        6.3664216414757107       -0.2895520686668471        0.0459632483932722        0.0569852111266852
+        4.0972399423287609       -0.1876146941331758        0.2406655968140666        0.3189271149812888
-        3.5578979186881190        0.3914348068965571        0.0792681288148885       -0.2877498234141676
+        2.6764201786237996       -0.4940630286923727        1.4733457121602158        0.5692545008206258
-        1.9457218946450945       -0.0464841447122113        0.0246833056920685       -0.2058946535748549
-        2.1488782398882846       -0.2607603273026275        1.3614450909750211       -0.9992971180892700
+        1.3391351279957253        0.0302420562158560        0.8135520721373320        0.6691943173322236
+        2.1811575161543804       -0.6879712731638781        3.6781698380259460        0.0628076875181509
+       -1.9893524167016490        2.8852747151282960       -0.1073681992526485        0.7576134719858190
-       -1.7141007436455578        2.2828428063373614       -0.1816206196712375       -0.9235083265987739
+       -1.6297532467514344        1.4769430802039738       -0.0406988525797818        0.9955526175656415
-       -1.9207340594132054        2.5342301019551869        0.0051336242038994       -0.9936641819349231
-       -0.8538897562320384       -0.3422728027122847        0.4101946924653158       -0.9934394819660318
+       -1.0172623338690454        0.4005381583298539        0.0494619001077741        0.8475065253219278
+       -0.5774457168756917       -0.8180845307363733        0.3170541681119897        0.9207393412409772
-       -0.9415856886654244       -0.6417817389625656       -0.3386880695995813       -0.6738758902636315
+       -4.9518338689922290       -1.5233527016064377       -0.9489593400154558        0.1207489421105395
+       -1.6060722592024834       -1.6606220684921893       -0.1439295388436972        0.4308753055723465
-       -2.3590085634532456       -1.3531713862692216        0.2033826428783888       -0.7095764258838037
+       -2.6176099004757210       -1.0755026718992982       -0.2598969577347945        0.9977500474782615
-       -2.3696506160554649       -1.3985777125702192       -0.4518484732571242       -0.9963537733476465
-       -2.2487502178259868       -4.1849377977504059        0.5500180139970705       -0.1586318904925156
+       -2.1922304577028413       -4.0899084255893836        0.2449538348615805        0.3123697133706422
