11

C -1.72039 -0.63546  0.14529
C -0.49670  0.18491 -0.12099
H -1.79754 -1.46553 -0.56029
H -2.61087 -0.00899  0.09521
H -1.63252 -1.06125  1.15064
O  0.60624 -0.60011 -0.36102
O -0.42250  1.40814 -0.02001
C  1.88446 -0.16496  0.20268
H  2.19200  0.78878 -0.22895
H  2.58718 -0.95264 -0.05720
H  1.78756 -0.07157  1.28695
