11

C  1.59309 -0.78902  0.16642
C  0.51365  0.20436 -0.13294
H  1.32424 -1.32210  1.08546
H  2.54770 -0.28224  0.30671
H  1.66876 -1.53114 -0.63195
O -0.66632 -0.40087 -0.53408
O  0.59689  1.41656  0.03387
C -1.86161 -0.17796  0.27742
H -1.75236 -0.70196  1.23119
H -2.68295 -0.60293 -0.29440
H -2.02068  0.89052  0.43931
