25
s                      x[A]                      y[A]                      z[A]                      q[e]
N -1.9057416711579560 1.2757008553593103 0.3656675282181682 0.1158659338886357
O -1.7353015387056365 -0.4067939991518723 0.4660573084358889 -0.2341991647481463
N -3.2857073871780562 -0.6615712887194268 0.0864433060217069 0.0569852111266852
N -2.0944999776616031 -0.5269073635043061 -0.0043845721503370 0.3189271149812888
O -1.8705257077719875 -0.3057879887602523 -0.2986158520368754 -0.2877498234141676
N -1.2848410954482388 -0.9479667236288525 -0.2646856779657560 0.5692545008206258
O -0.8614897854747505 -0.5162760577154750 0.3699288733282500 -0.2058946535748549
O -1.0760459203503285 -0.7307351572669712 -0.3064293879308475 -0.9992971180892700
N -0.6608691778388882 -0.4139823825123262 -0.0988686431537961 0.6691943173322236
N -0.7940518000792750 -2.1212510697208509 -0.4121708524860538 0.0628076875181509
N 0.5566514781753983 1.6283815873754210 -0.0641160085168373 0.7576134719858190
O 0.5337621154434520 1.2749268749975224 0.0167747484166917 -0.9235083265987739
N 0.6159532997283026 0.8573248534110534 -0.0416463185300597 0.9955526175656415
O 0.5721059358089395 1.4281954799867222 -0.1092318138594301 -0.9936641819349231
O 0.4875321550762679 -0.2041560610099248 -0.1690601369478989 -0.9934394819660318
N 0.4888564467348017 0.2179301622496476 -0.0023449543033979 0.8475065253219278
N 0.4512860651122002 -0.4842763800675877 -0.0730601092762060 0.9207393412409772
O 0.6661652303216139 -0.3015166204964798 0.2152186464849266 -0.6738758902636315
N 2.8350221947180336 -0.0534854525605681 0.2265694317688733 0.1207489421105395
N 1.1413313679128780 -0.7150783310417490 0.1138118550723339 0.4308753055723465
O 1.4337066358089818 -0.4554743040518990 -0.1498707748319416 -0.7095764258838037
N 1.5559224573113883 -0.2467338463431709 0.0639661226163700 0.9977500474782615
O 1.4982279237001739 -0.4384223370762935 0.1967117425809707 -0.9963537733476465
O 1.8370695637060483 -1.9094348875763014 -0.2364127773609350 -0.1586318904925156
N 1.8135077792476098 -1.8609324039184525 -0.0699248127110517 0.3123697133706422
