21
s                      x[A]                      y[A]                      z[A]                      q[e]
N       -1.7059036305692037        0.6777657413622001       -1.6008254140871208        0.0707249461841811
O       -1.6448024444456677        0.1919950787619456       -0.0853132300411421       -0.3496602100029151
N       -1.4290946242687788       -0.1125507506274705       -0.4850326192400217        0.9824851761690530
N       -3.1102576615890776       -0.3119551275132900        0.0285989501419135        0.1071394941056757
O       -1.4834313755487096       -0.2932518569228760       -0.4703532383403385       -0.8194842575378962
N       -0.6357163055997158       -0.3830052445771940        0.2533369374470906        0.3116552922920345
N       -1.0810700622751852       -0.9873732567895279        1.6018578246907977        0.0918298459672651
N       -1.4174398901417959       -0.5354110213055105        0.5370451717183952        0.5593901217632046
O       -1.0946453034787622       -0.4256227280280672        0.4385634588340052       -0.9963138680841535
N        0.9023809500375469        0.8135087655210899       -0.0581203905709734        0.9989733053171830
O        0.8948591098868612        0.9142733513172736       -0.0693993364288782       -0.8354521971080898
N        0.9194185388595629        1.6871622464919180        0.0449537809917285        0.2899344186932475
O        0.8410217505155656        1.3081180918783750        0.0622476322441771       -0.8678253524624289
N        0.4198969303618869       -0.4024696612285140        0.0328690977269477        0.9219570073558310
O        0.5292400444020746       -0.2536487960322471       -0.1591803171211821       -0.9704818863270434
O        0.8177353509012383       -0.3233596585465381        0.4470774210699583       -0.3320651923316272
N        0.6790078848168509        0.3069710936630901        0.0565982574673747        0.9769593393400061
O        1.1814804843757531       -0.7443574224325648       -0.6597418034037993       -0.1970026432733326
O        1.4566414513131247       -0.7580192496409487        0.3065775360582104       -0.1946060569702309
N        2.6240654929621035       -0.5236141554315616       -0.5092529437991887        0.1283355164991325
N        1.1815406157196453       -2.1290742616164242       -0.1920050149057993        0.1235072004109040

        RMSE         1.008515760E+00 kcal/mol

Coordinates in bohr
s                   x[bohr]                   y[bohr]                   z[bohr]                      q[e]
+       -3.2236906581999833        1.2807916283924430       -3.0251216072972782        0.0707249461841811
-       -3.1082261504858764        0.3628181162957820       -0.1612186396559398       -0.3496602100029151
+       -2.7005974472320502       -0.2126900939006200       -0.9165788122771082        0.9824851761690530
+       -5.8775351600102521       -0.5895097544323922        0.0540441832438397        0.1071394941056757
-       -2.8032790256982394       -0.5541656953661799       -0.8888388026854303       -0.8194842575378962
+       -1.2013297110713157       -0.7237750168648888        0.4787374292372427        0.3116552922920345
+       -2.0429263401317388       -1.8658650389335518        3.0270725805872463        0.0918298459672651
+       -2.6785731916670255       -1.0117801948190812        1.0148682915472369        0.5593901217632046
-       -2.0685798280935299       -0.8043103887432704        0.8287648258297683       -0.9963138680841535
+        1.7052528564014076        1.5373087674941499       -0.1098316204837813        0.9989733053171830
-        1.6910386385571392        1.7277262377941351       -0.1311457391390883       -0.8354521971080898
+        1.7374492331131794        3.1882745750818975        0.0849503343781789        0.2899344186932475
-        1.5893007740275400        2.4719849334066089        0.1176309768997125       -0.8678253524624289
+        0.7934901993044039       -0.7605574335276845        0.0621135926948397        0.9219570073558310
-        1.0001187385450614       -0.4793267565530613       -0.3008072039225599       -0.9704818863270434
-        1.5452958563084946       -0.6110611946745158        0.8448538826982104       -0.3320651923316272
+        1.2831389393302630        0.5800912954555033        0.1069552057914865        0.9769593393400061
-        2.2326745380434301       -1.4066316678492665       -1.2467313219488219       -0.1970026432733326
-        2.7526534059712189       -1.4324487796464402        0.5793475793676894       -0.1946060569702309
+        4.9587651169628613       -0.9894873491785581       -0.9623485923636340        0.1283355164991325
+        2.2327881698149419       -4.0233672552163915       -0.3628368928864086        0.1235072004109040
