21
s                      x[A]                      y[A]                      z[A]                      q[e]
N 2.2238639907497468 1.4738930159366979 -0.0789925411988546 0.0690680479201058
O 1.8297138076122379 -0.3743431761875058 -0.3819949997121077 -0.3117950550350966
N 1.9426091145095621 -0.4885922254023756 -0.0312949030461184 0.5776243102962968
N 3.2657404922831570 -0.7839691224482384 -0.0434494218894832 0.0604184539076988
O 1.8290884638889833 -0.3865745203910156 0.2900824317821368 -0.3968494342195521
O 0.9158823859501205 -0.1713386494639122 -0.0921081227626457 -0.9828651838991298
N 0.7420853367149358 -0.0620927151052397 -0.0800050455471145 0.7759263489545838
N 0.8738644289483464 -1.4430449266562937 0.0049671189645336 0.9970342621901004
O 0.9168812575901139 -1.4142152246387307 0.2855199970471756 -0.3970377457969525
O 0.9459764838636523 -1.4337617759317862 -0.2662835251279176 -0.3893757401670396
N -1.8856312381512206 -1.1306164731169486 0.3103640978379690 0.1691966627363242
O -1.5293993100570309 -0.7575555443661779 0.1547193273869414 -0.6800109224217911
O -0.3171578386353003 0.5051803675293005 0.3839949272864379 -0.9821368279659007
N -0.1933794770654285 0.4957257687379477 0.2583002345969769 0.8921713087406896
O -0.5451899453830471 0.5692802088451836 -0.2737151723102154 -0.3335771210350215
N -0.8211924729976119 -0.0662317751729717 0.1444703708789530 0.9988617281482304
N -2.1720472726480908 1.7434723631307802 -0.4445673403361686 0.0655379221577991
N -1.0202368786498797 1.0422353695842306 -0.2904024396056957 0.9908754307264420
O -0.8769381149811661 1.1784479570898436 0.0382899710583289 -0.6595771554465193
O -0.9329612105386512 1.0694315872030495 -0.6666759682412229 -0.5578053818499882
N 0.3363490759691158 2.2549025976458661 0.0277389485871919 0.0943160920587207
