21
s                      x[A]                      y[A]                      z[A]                      q[e]
N -1.9702454298730856 1.4379662284001931 0.0756339978129844 0.0707249461841811
O -1.6149104151742422 -0.0827243233109227 0.3328317560456835 -0.3496602100029151
N -1.5021690714964717 0.1458414219890717 -0.1504623626431197 0.9824851761690530
N -3.0424770500685110 -0.6700393576620505 0.1270028589511060 0.1071394941056757
O -1.5604761522100152 0.0361398492169003 -0.2925699335607082 -0.8194842575378962
N -0.4939829669962980 -0.6542957261678194 -0.1272365355777963 0.3116552922920345
N -0.7472084742183327 -2.0140229247935646 0.0177636584209604 0.0918298459672651
N -1.2525364646503325 -1.0040009521514242 0.0000534192183882 0.5593901217632046
O -0.9549080462804145 -0.8142075525330441 -0.0356436399402331 -0.9963138680841535
N 0.7387084325580417 0.8978032360083108 0.0553380172771871 0.9989733053171830
O 0.7119832026878026 0.9961115615491081 0.0534343290688719 -0.8354521971080898
N 0.5046561866329421 1.7314086033217755 -0.1229516949402965 0.2899344186932475
O 0.5156735885911967 1.3442977840912911 -0.1021091387571677 -0.8678253524624289
N 0.5218560806979494 -0.4161549143293803 -0.1302619469430280 0.9219570073558310
O 0.6301707312136553 -0.2439857660610654 -0.3011844754458313 -0.9704818863270434
O 0.7982572682168074 -0.2518642638822707 0.3512836426761649 -0.3320651923316272
N 0.6008574756627583 0.3331267994021421 -0.0814082223664915 0.9769593393400061
O 1.5339451701829114 -0.4767231848817002 -0.5574332522949814 -0.1970026432733326
O 1.5351217211676835 -0.5162712608240065 0.3934115093113594 -0.1946060569702309
N 2.7773668042958022 -0.0041679240278190 0.0492850049176484 0.1283355164991325
N 1.7222414692925929 -1.8813152942467508 -0.2145302999826812 0.1235072004109040
