21
s                      x[A]                      y[A]                      z[A]                      q[e]
N 0.1516466506511582 0.1073866861346526 0.0215310676172634 0.0707249461841811
O 0.7055744805434320 -0.3721023496045655 -0.4912961046553528 -0.3496602100029151
N 0.7961760693058784 0.1210174661759370 0.6580757861207954 0.9824851761690530
N 1.2991836490196063 -0.2464840497459181 0.9429630000251894 0.1071394941056757
O 0.7618844869686698 0.2577096179424677 -0.5828664195430755 -0.8194842575378962
N -0.4823052304696352 0.1265043448908384 0.5075647350413889 0.3116552922920345
N -1.2701346393294295 -0.0611776198559744 0.2715853662497230 0.0918298459672651
N -0.1975051074141716 -0.0439476240857388 -0.0819445903530929 0.5593901217632046
O -0.2722104970173823 0.0099056931973043 -0.4245776520597816 -0.9963138680841535
N 1.3140272463497689 0.2059068240403404 -0.3772963263403064 0.9989733053171830
O 1.3455510921835476 0.2187424362956540 -0.2812552777572845 -0.8354521971080898
N 0.7113330788593957 -0.2506324123564532 -0.1390073877527898 0.2899344186932475
O 0.9838438753460909 -0.2164916386365279 0.1348225869166120 -0.8678253524624289
N -0.0202009631343979 0.1822958164166557 0.3663404979587179 0.9219570073558310
O 0.1741000441622501 0.3619696253245953 0.3428196383317983 -0.9704818863270434
O 0.2607076691050902 -0.2819684595400193 0.1642904755097467 -0.3320651923316272
N 0.6984796571850002 0.1543150328708847 0.5960495205793430 0.9769593393400061
O -0.2066569845048018 0.5916534126784655 0.6571910990550639 -0.1970026432733326
O 0.3182417233402764 -0.2957534272865725 -0.6174734571892893 -0.1946060569702309
N -0.2690290761232270 0.0941107445465875 0.3598940267015828 0.1283355164991325
N -0.8749492207749718 0.4387748154129480 0.1954119040968020 0.1235072004109040
