21
s                      x[A]                      y[A]                      z[A]                      q[e]
N       -1.9680109085789748        1.4411060064919692        0.0753480656682098        0.0707249461841811
O       -1.6287771238741742       -0.0995179158575473        0.3318943231130951       -0.3496602100029151
N       -1.4678442734428281        0.1900022470617421       -0.1534985256406221        0.9824851761690530
N       -3.0264359649900610       -0.6651047735353366        0.1256088742383433        0.1071394941056757
O       -1.5887312068674206       -0.0020042209317703       -0.2878495988939316       -0.8194842575378962
N       -0.4833447093884121       -0.6400921695247304       -0.1273426123025578        0.3116552922920345
N       -0.7433664227939863       -2.0082892738199956        0.0182724633155001        0.0918298459672651
N       -1.2300486309715317       -0.9766842261464036        0.0003028624762415        0.5593901217632046
O       -0.9898970846817479       -0.8579587596134179       -0.0358077637649308       -0.9963138680841535
N        0.7623802203710618        0.9456552731038904        0.0498524870468293        0.9989733053171830
O        0.6908759090980878        0.9545887319860137        0.0579637705334354       -0.8354521971080898
N        0.5149300440230882        1.7476198543848025       -0.1254025028170414        0.2899344186932475
O        0.4900995980596879        1.2994614462718430       -0.0961303333297940       -0.8678253524624289
N        0.5451554145116909       -0.3791100557454334       -0.1305622268811305        0.9219570073558310
O        0.6064132942308237       -0.2831076662058659       -0.2991701392236656       -0.9704818863270434
O        0.7901617228390261       -0.2648272390828887        0.3512947051164179       -0.3320651923316272
N        0.6242872264476914        0.3756378886176250       -0.0844831894200105        0.9769593393400061
O        1.5300777073480980       -0.4847319000431790       -0.5572497012099326       -0.1970026432733326
O        1.5311936695369388       -0.5229961137641291        0.3931315251900262       -0.1946060569702309
N        2.7785340408458099        0.0001029192826868        0.0489213356338187        0.1283355164991325
N        1.7243830699891742       -1.8762363715089554       -0.2128144742880802        0.1235072004109040

        RMSE         8.363310666E+00 kcal/mol

Coordinates in bohr
s                   x[bohr]                   y[bohr]                   z[bohr]                      q[e]
+       -3.7190016291276859        2.7232956700220727        0.1423872081959281        0.0707249461841811
-       -3.0779426835330881       -0.1880616055471210        0.6271893732779578       -0.3496602100029151
+       -2.7738236716285765        0.3590522101682669       -0.2900701741223418        0.9824851761690530
+       -5.7191351100668912       -1.2568658667164379        0.2373663712375441        0.1071394941056757
-       -3.0022668679475100       -0.0037874286559557       -0.5439569072324193       -0.8194842575378962
+       -0.9133891249331040       -1.2095988954518639       -0.2406426613521910        0.3116552922920345
+       -1.4047589499419255       -3.7951167082143757        0.0345299513037702        0.0918298459672651
+       -2.3244550335305387       -1.8456656984714206        0.0005723271337743        0.5593901217632046
-       -1.8706343824376390       -1.6213070826068685       -0.0676668666808119       -0.9963138680841535
+        1.4406898199674918        1.7870294752613791        0.0942075471914414        0.9989733053171830
-        1.3055662548720841        1.8039112659016308        0.1095356515070756       -0.8354521971080898
+        0.9730767569735792        3.3025228961997666       -0.2369763857711620        0.2899344186932475
-        0.9261540145297730        2.4556262440451158       -0.1816600023422811       -0.8678253524624289
+        1.0301944292375340       -0.7164141767659191       -0.2467268511352247        0.9219570073558310
-        1.1459550449329323       -0.5349959531466191       -0.5653496280478166       -0.9704818863270434
-        1.4931892509856750       -0.5004509524278012        0.6638507819934987       -0.3320651923316272
+        1.1797318816078097        0.7098527318325437       -0.1596500902089962        0.9769593393400061
-        2.8914278175563179       -0.9160105353544079       -1.0530493187799783       -0.1970026432733326
-        2.8935366804595937       -0.9883194196929892        0.7429109138926748       -0.1946060569702309
+        5.2506683674602348        0.0001944892573066        0.0924479260395182        0.1283355164991325
+        3.2586117376557171       -3.5455728887746725       -0.4021610719377584        0.1235072004109040
