25
s                      x[A]                      y[A]                      z[A]                      q[e]
N 1.8277700571184361 1.1864506316425252 0.7717502114318602 0.1158659338886357
O 1.8470750755445255 -0.1122031628265169 -0.3353564561855421 -0.2341991647481463
N 3.2979225083601338 -0.5846041848824772 0.1130191524292244 0.0569852111266852
N 2.0968532254962091 -0.4974203406292005 0.0567150698146816 0.3189271149812888
O 1.7903900429631991 -0.4695436323673418 0.3590998841444001 -0.2877498234141676
N 1.3468360371567270 -0.8544619861858652 -0.1939472910785934 0.5692545008206258
O 0.7927123411609741 -0.4631523445728125 -0.7487505365711937 -0.2058946535748549
O 1.1363875287095617 -0.6477715915218459 -0.1184782912539519 -0.9992971180892700
N 0.6743588898982513 -0.3585817875873110 -0.2536694234665337 0.6691943173322236
N 0.8950430291068638 -1.9648313138398006 -0.8316603642410084 0.0628076875181509
N -0.6390686000745375 1.6208573286716279 -0.1042074028427549 0.7576134719858190
O -0.6134557949240357 1.2668036249972978 -0.1820174471707177 -0.9235083265987739
N -0.6618811663566903 0.8477786104592914 -0.1017650688415601 0.9955526175656415
O -0.6363883086703144 1.4213372739772376 -0.0540708734478459 -0.9936641819349231
O -0.4591556462590011 -0.2055072718494623 0.0192881464553719 -0.9934394819660318
N -0.5113235506681555 0.2115944963858685 -0.1518204473309209 0.8475065253219278
N -0.4258982199838632 -0.4857295566819004 -0.0766124721957374 0.9207393412409772
O -0.6984487406395357 -0.3213774433567619 -0.3244992081257745 -0.6738758902636315
N -2.8021524483232234 -0.1669534662966254 0.3633349885354736 0.1207489421105395
N -1.1155571498839247 -0.7533622460536900 0.0009489966084952 0.4308753055723465
O -1.3312865319719442 -0.4861650256781873 0.3240905128501340 -0.7095764258838037
N -1.5232027975891442 -0.2987424728922750 0.1447754917287866 0.9977500474782615
O -1.4968368595433623 -0.4977521984049684 0.0127881545221366 -0.9963537733476465
O -1.6031391250551432 -1.9436276523416767 0.6161850387318449 -0.1586318904925156
N -1.6330886390582928 -1.9066473359159695 0.4473749612978939 0.3123697133706422
