25
s                      x[A]                      y[A]                      z[A]                      q[e]
N 0.0652190072851903 -0.0035295381381390 0.2443958100164253 0.1158659338886357
O -0.1736630578449244 0.4397941429540728 0.3073579955170826 -0.2341991647481463
N -0.0840082720819758 -0.0063028124711905 -0.3910561508641748 0.0569852111266852
N -0.5105244734987485 -0.0322063814002428 0.1393063028131803 0.3189271149812888
O -0.2397686010995844 -0.3397661640361533 0.2743307699119818 -0.2877498234141676
N 0.0394180709148273 0.1145104685895752 -0.5525129982578569 0.5692545008206258
O -0.1601676521295181 -0.4969106576639784 0.0427287113191466 -0.2058946535748549
O -0.0727895484434951 0.1673254793795629 -0.2744391075709971 -0.9992971180892700
N -0.1844521847001770 -0.0182940426996771 0.2436870321843035 0.6691943173322236
N 0.0174111753718134 -0.0205295835267646 0.3799507054060031 0.0628076875181509
N 0.0591113652436468 0.0049504852171024 0.2965127490082654 0.7576134719858190
O 0.0359618285799162 -0.0756166396867077 -0.0570936440455027 -0.9235083265987739
N 0.1079366933264294 -0.0096421659705139 -0.4752256941170628 0.9955526175656415
O 0.0693282174071424 0.0513598486338155 0.0963355907554934 -0.9936641819349231
O -0.0428886849769543 0.1160285221980431 -0.1241104691152605 -0.9934394819660318
N -0.0262519066208772 -0.0524980543474356 0.2969542964336946 0.8475065253219278
N -0.0783273094401665 0.0198080585767391 -0.4039554981107396 0.9207393412409772
O 0.1558671697195128 -0.2566373881295170 -0.2265460895646584 -0.6738758902636315
N -0.0644597292637629 0.0227638988744186 0.2204199247640040 0.1207489421105395
N 0.2616348627239654 0.0756755853854722 -0.4892663421454537 0.4308753055723465
O 0.3493298975244757 -0.2118255337388505 -0.1259391510834327 -0.7095764258838037
N 0.4482324258150345 -0.0079802829236786 0.1037962330410506 0.9977500474782615
O 0.3050893591573036 0.1261260567322268 -0.0349345957335547 -0.9963537733476465
O -0.0341060444220274 -0.3708080186554442 -0.1403670032612864 -0.1586318904925156
N -0.0306264421016361 -0.2014912300767455 -0.0947481813966765 0.3123697133706422
