25
s                      x[A]                      y[A]                      z[A]                      q[e]
N -2.0258921167867872 1.4029528048550270 -0.2515073223859414 0.1158659338886357
O -1.8510830708083161 -0.1487209209510550 0.4234179011160425 -0.2341991647481463
N -3.3470073592520930 -0.5630162173033602 0.0318626166447686 0.0569852111266852
N -2.1526674889930835 -0.4293249253060817 -0.0075126977160035 0.3189271149812888
O -1.8946537006665212 -0.2969676851710696 -0.3463961685069867 -0.2877498234141676
N -1.3678044785989427 -0.7767959303648320 0.1996915489429026 0.5692545008206258
O -0.7752198936678546 -0.6744835172885640 -0.4364524837235708 -0.2058946535748549
O -1.0685895570957684 -0.7389490013727477 0.2405830917207354 -0.9992971180892700
N -0.5608010965710327 -0.6354139387624599 0.0321692986296416 0.6691943173322236
N -0.8232498954465540 -2.0204138120529147 0.2503283258374454 0.0628076875181509
N 1.7328691461613455 -1.0857415172870608 -0.0617743562056327 0.7576134719858190
O 1.4639635760451433 -0.8524536707185320 -0.1257877037833157 -0.9235083265987739
N 1.2118392869003736 -0.5170219055474674 -0.0390674842562189 0.9955526175656415
O 1.6030812127217871 -0.9377510589406481 -0.0074745194199795 -0.9936641819349231
O 0.3512846937708506 0.1155055943680363 0.1398656515653862 -0.9934394819660318
N 0.6574362676694254 -0.1697833107438540 -0.0482973284546574 0.8475065253219278
N 0.1237918713862719 0.2752183951466505 0.0587908367159799 0.9207393412409772
O 0.3978952199873156 0.3370958171695947 -0.2294579098901953 -0.6738758902636315
N 2.0823794188653579 1.7271278288744043 -0.0542133172783147 0.1207489421105395
N 0.4320771781490607 0.9570599307904391 -0.0331493975551590 0.4308753055723465
O 0.8181362221874344 0.9597213008004335 0.2303341768851916 -0.7095764258838037
N 1.0552865494348360 0.9243592358626807 0.0114861564961666 0.9977500474782615
O 0.8742484616196410 1.0370711699301842 -0.1082491609266060 -0.9963537733476465
O 0.0546612595161075 2.2377098427629054 0.4828161885074350 -0.1586318904925156
N 0.0802133231591850 2.2060566467168634 0.3104513700421475 0.3123697133706422
