21
s                      x[A]                      y[A]                      z[A]                      q[e]
N -1.7515366370688406 0.7439137101075413 -1.6304647690547787 0.0707249461841811
O -1.6710224976239165 0.3792062372404015 -0.0761684844360511 -0.3496602100029151
N -1.4648779556043958 0.0516595077034381 -0.4632027925631490 0.9824851761690530
N -3.1385904229754207 -0.0698903950793185 0.1103486451403666 0.1071394941056757
O -1.5198956771998064 -0.1273675080936614 -0.4371064165892450 -0.8194842575378962
N -0.6134280108333957 -0.0007025332041040 0.5215532511765189 0.3116552922920345
N -1.0718076197171678 -0.7089512771285591 1.6631036816077598 0.0918298459672651
N -1.4386624963022829 -0.1057136474430131 0.6723803220986123 0.5593901217632046
O -1.0939386406107809 -0.1084109335892487 0.5890034370488295 -0.9963138680841535
N 1.1251173962058203 -0.6789666357418369 -0.0742561088818791 0.9989733053171830
O 1.1511007708658088 -0.7774171528062619 -0.0704994913202287 -0.8354521971080898
N 1.3210594114548186 -1.5175402023045690 -0.2550579211984191 0.2899344186932475
O 1.1463285331502233 -1.1770160110985164 -0.1955942103915381 -0.8678253524624289
N 0.3562468532163492 0.3494656855254673 0.1996523209895234 0.9219570073558310
O 0.5814157672213315 0.2469323515034641 0.2980509644413660 -0.9704818863270434
O 0.4997400117138905 0.3624158913365063 -0.3619589103782505 -0.3320651923316272
N 0.7477598755870527 -0.2599940072530781 -0.0155498216291445 0.9769593393400061
O 1.2360335403792355 0.9042083977046396 0.5185028824771797 -0.1970026432733326
O 1.0061011970424234 0.9776822713282987 -0.4568890524797385 -0.1946060569702309
N 2.4361090066604842 1.1021683701178344 -0.3023575866055981 0.1283355164991325
N 0.6518969092383561 2.2203403395649532 0.2726104628996439 0.1235072004109040
