25
s                      x[A]                      y[A]                      z[A]                      q[e]
N 0.0653702941748972 -0.0035741469568269 0.2443855220318821 0.1158659338886357
O -0.1738644054985844 0.4400598830072013 0.3070548514904501 -0.2341991647481463
N -0.0838815677788258 -0.0061522141602068 -0.3910042652820121 0.0569852111266852
N -0.5105810871060344 -0.0325443566243783 0.1396230418977320 0.3189271149812888
O -0.2397786568050216 -0.3395387039225055 0.2739763522161610 -0.2877498234141676
N 0.0398295450727358 0.1148469832213286 -0.5524047091952787 0.5692545008206258
O -0.1602595626815702 -0.4970909576558949 0.0424188754751053 -0.2058946535748549
O -0.0730353289711466 0.1671659520674198 -0.2748227184325613 -0.9992971180892700
N -0.1841798974329994 -0.0182173322435906 0.2438924571783644 0.6691943173322236
N 0.0174695157697285 -0.0207941107368869 0.3799640466340222 0.0628076875181509
N 0.0594903294620684 0.0046346345886445 0.2967992824856736 0.7576134719858190
O 0.0359242106617069 -0.0753693170949180 -0.0568127605012675 -0.9235083265987739
N 0.1083568225371127 -0.0099231338760690 -0.4751788371726924 0.9955526175656415
O 0.0693340123620220 0.0517240803423143 0.0967132016367685 -0.9936641819349231
O -0.0430827512049848 0.1161404963772175 -0.1240305954354962 -0.9934394819660318
N -0.0259104014870992 -0.0526840894104172 0.2968682705369795 0.8475065253219278
N -0.0780175873135228 0.0198629999220946 -0.4042222769715820 0.9207393412409772
O 0.1556572457212741 -0.2567497116636300 -0.2265700701794260 -0.6738758902636315
N -0.0645018169904807 0.0228428927256091 0.2205344431936982 0.1207489421105395
N 0.2613488296537521 0.0756594878361554 -0.4891270993442465 0.4308753055723465
O 0.3494928680223047 -0.2119454837840778 -0.1259190512240151 -0.7095764258838037
N 0.4479959727191002 -0.0079055227793104 0.1040816815977355 0.9977500474782615
O 0.3051744917834117 0.1261763710146555 -0.0349097089554374 -0.9963537733476465
O -0.0341341466486267 -0.3707244929617677 -0.1403154662933173 -0.1586318904925156
N -0.0307545437530924 -0.2017089591535964 -0.0950582171843182 0.3123697133706422
