24
s                      x[A]                      y[A]                      z[A]                      q[e]
N 1.5258273575227264 -0.5341838774811600 -0.0804447905068518 0.6959175615854226
O 1.7185708101157093 -0.5989358616150057 -0.3141516960787658 -0.4294665048044459
N 1.2855060931142295 -1.2767046036597758 0.9229856980310021 0.7289443612696791
O 1.2919052733719305 -1.1911409628666301 0.7503530722215742 -0.8899528116456963
N 2.3949119042439149 -0.2557835964775784 0.3417643040906700 0.4821174903544280
O 2.1347445440768325 -0.3213372255469920 0.3636798569297793 -0.6035297564939646
N 1.7535590753639447 -1.7673179147198537 -0.9216344803439493 0.0604057803354635
N 0.6166964308430837 1.6558312855658919 0.0804412970036346 0.6991174418445399
O 0.2533847366090854 1.5801092527587937 -0.0427968908429471 -0.4131324281244263
O 0.7967499947527064 1.4814247028874346 0.1080149112269939 -0.9286014603942530
O -0.0229056250448864 0.0079723274321783 -0.2421167347198979 -0.1057946580878595
N 0.7483558043168650 0.1384980120866059 -0.2291873488055077 0.9961038253671308
O 0.8571871267994688 -0.0897968597743102 -0.4677729525202009 -0.3737552305035935
N -0.3635783725962008 -0.2999390503559853 -0.3690042486247284 0.9714181100989372
O -0.6699287252376516 -0.3837364479620423 -0.7543668726699209 -0.9973398242463560
N -0.8941590339278089 -0.3735635811795566 -0.5584315230730601 0.7637225416907655
O -0.8150283945578827 -0.4194688208344396 -0.3422297877446033 -0.9974375214017446
O -2.1283876906534456 -0.2289438988021461 0.0183152064697867 -0.4871145088925188
N -1.4332578140237933 0.0457879617719937 0.0122428302454314 0.4662300369825688
N -2.3419535822660520 -0.3420087538691090 -0.0069761694795056 0.6223673236702755
N -1.9224310414648966 -0.8290811041740482 1.0117379427112723 0.9509229066582735
O -1.9164069471469118 -0.8232415186560536 0.9189379316003030 -0.9922381659518612
O -1.9111242961159012 0.4848425922288557 0.3251507632833473 -0.6086911331096487
N -2.0189727914809663 0.8278132074557387 0.4048278619974052 0.3897866237988844
