25
s                      x[A]                      y[A]                      z[A]                      q[e]
N 1.7540365141347285 0.9496100876359143 -1.2232304672737158 0.1158659338886357
O 1.7810790414028561 -0.4551837934441063 -0.3163273092089520 -0.2341991647481463
N 3.3873286350617051 -0.2752894237289646 0.0286820471644880 0.0569852111266852
N 2.1329295368754280 -0.1902699565371601 0.1078872957509560 0.3189271149812888
O 1.9304575538498780 0.1497396384905900 0.1962285532453625 -0.2877498234141676
N 1.3828511148510643 -0.5051895288695853 0.4018572923816026 0.5692545008206258
O 0.7363146006806267 -0.4577329457067877 0.7859613054623100 -0.2058946535748549
O 1.1000664255224035 -0.3963265725166014 0.3122261207465046 -0.9992971180892700
N 0.5839436441977545 -0.4400513624787075 0.3430528086750990 0.6691943173322236
N 1.0309725743163216 -1.3644916835694989 1.5613750819774406 0.0628076875181509
N -1.3273178062731208 -1.0977279343865987 -0.2169845748776880 0.7576134719858190
O -1.1635060527794872 -0.9064713769906150 -0.1196414726541002 -0.9235083265987739
N -0.9533448204486770 -0.5232238517506221 -0.0800191422982341 0.9955526175656415
O -1.2280460999019720 -0.9768284351314056 -0.2172974390545210 -0.9936641819349231
O -0.3067293354936622 0.1194935863674251 0.0269864050126419 -0.9934394819660318
N -0.5608995758625127 -0.1652887505668833 0.0785093589517548 0.8475065253219278
N -0.1568379847746701 0.2960998793479145 0.1474166868934602 0.9207393412409772
O -0.4782792610380874 0.3053458247115217 0.2767070638951668 -0.6738758902636315
N -2.3059358172352482 1.4504672082900023 -0.1866621530137230 0.1207489421105395
N -0.5774739575907833 0.8945047148818220 0.2087050721808354 0.4308753055723465
O -0.8553658998643945 0.8781942930414186 -0.0849330828920050 -0.7095764258838037
N -1.0740111234433209 0.7648487923239305 -0.0032530365360248 0.9977500474782615
O -0.9669506967573731 0.8787790599427190 0.1583916508459157 -0.9963537733476465
O -0.3677290935253976 2.2184435952400920 0.0200493677844192 -0.1586318904925156
N -0.3841406032266218 2.1901050180803234 0.1833119657554812 0.3123697133706422
