25
s                      x[A]                      y[A]                      z[A]                      q[e]
N 0.0819615018879024 -0.0099396081512532 0.2381300114420137 0.1158659338886357
O -0.1696501831195746 0.4578239243392706 0.2921981735640746 -0.2341991647481463
N -0.0774860137468349 -0.0040965472971541 -0.3909012833747872 0.0569852111266852
N -0.5208349519913213 -0.0434060397012297 0.1686285746418491 0.3189271149812888
O -0.2227006642120936 -0.3356211636335026 0.2463089154515572 -0.2877498234141676
N -0.0018018817979733 0.1253463736146919 -0.5530918946328045 0.5692545008206258
O -0.1412919142343679 -0.4864380372331651 0.0475965488837672 -0.2058946535748549
O -0.0370773576645981 0.1496351517753802 -0.2531547814296571 -0.9992971180892700
N -0.1965266350626769 -0.0174039572437625 0.2378081182807866 0.6691943173322236
N 0.0174596215845643 -0.0376181972845450 0.4112764829678699 0.0628076875181509
N 0.0575701229533447 0.0035572080420611 0.2645224555410874 0.7576134719858190
O 0.0276423412006694 -0.0699824845744406 -0.0704373020166481 -0.9235083265987739
N 0.0974895795006446 -0.0117742376957683 -0.5054671527591098 0.9955526175656415
O 0.0581976556991303 0.0494574412192577 0.0750630817212619 -0.9936641819349231
O -0.0438010270065959 0.1109185234376969 -0.1264991524209503 -0.9934394819660318
N -0.0359918847463614 -0.0545617466613859 0.2817992522987239 0.8475065253219278
N -0.0849975064771748 0.0180296949517659 -0.3941883437609806 0.9207393412409772
O 0.1543117748857055 -0.2431438441019662 -0.2294242883618964 -0.6738758902636315
N -0.0678314154347010 0.0210340334797436 0.2147738803340089 0.1207489421105395
N 0.2700135617942525 0.0763036828971106 -0.4871737618950203 0.4308753055723465
O 0.3542172245294414 -0.2038816642734592 -0.1315577775090321 -0.7095764258838037
N 0.4515180585917148 -0.0068460564426090 0.0858443304692121 0.9977500474782615
O 0.3127207841594778 0.1192300086533507 -0.0441784819860236 -0.9963537733476465
O -0.0234180414429770 -0.3622770674128665 -0.1395775754802728 -0.1586318904925156
N -0.0406112699499091 -0.2013527645679156 -0.0761091635160165 0.3123697133706422
