25
s                      x[A]                      y[A]                      z[A]                      q[e]
N       -1.6610459945582778        0.1378110538956463       -1.6350965237468240        0.1158659338886357
O       -1.8299539817964607        0.3364841390343470        0.0251005265450667       -0.2341991647481463
N       -3.3657207843299619       -0.1471046147193137        0.0313162810174099        0.0569852111266852
N       -2.1493410768488705       -0.1864990266412554        0.1395270824089800        0.3189271149812888
O       -1.8945508242848184       -0.4524176923917287       -0.0760550404246956       -0.2877498234141676
N       -1.4863806297881450       -0.2248284107437233        0.5360528868860543        0.5692545008206258
O       -0.7503163224192670       -0.0456843950250429        0.9576124319872081       -0.2058946535748549
O       -1.2084924381645175       -0.1684103822243048        0.4281675389999034       -0.9992971180892700
N       -0.7028090013138876        0.0255406531973420        0.4584888043216006        0.6691943173322236
N       -1.1587064673552590       -0.4343399053358049        1.9632220303188752        0.0628076875181509
N        1.0449845195908765        1.5055773965511492       -0.0629038856985405        0.7576134719858190
O        0.9384634477766342        1.1962297060365523        0.0443418986187141       -0.9235083265987739
N        0.8565023972618107        0.7603815262773538        0.0027059328088929        0.9955526175656415
O        0.9761044998319071        1.3257337128236939       -0.0897023569950138       -0.9936641819349231
O        0.3855133547632916       -0.1833781915110473        0.0056099773912374       -0.9934394819660318
N        0.5592404373111983        0.2005319231887643        0.1302671048511725        0.8475065253219278
N        0.2939304121469832       -0.4262076405953257        0.1281186628467541        0.9207393412409772
O        0.6349952927025906       -0.3444978963114456        0.2997673965583840       -0.6738758902636315
N        2.6283592941472449       -0.8088470287921814       -0.4580417624561527        0.1207489421105395
N        0.8899273956493285       -0.8739442437831466        0.0684238586761104        0.4308753055723465
O        1.1345785217557265       -0.7139870820294910       -0.2886497911756588       -0.7095764258838037
N        1.3682392849148595       -0.5704605950326169       -0.1478312817072146        0.9977500474782615
O        1.3097924003637447       -0.7340565555879113       -0.0017011042513752       -0.9963537733476465
O        0.9919479469643776       -2.2125686832420173       -0.4110132595996572       -0.1586318904925156
N        1.0670216465635960       -2.1555240762649759       -0.2634591994394668        0.3123697133706422

        RMSE         6.420562597E-01 kcal/mol

Coordinates in bohr
s                   x[bohr]                   y[bohr]                   z[bohr]                      q[e]
+       -3.1389220115038592        0.2604251489234797       -3.0898846185696494        0.1158659338886357
-       -3.4581118477863506        0.6358628683353897        0.0474331207749603       -0.2341991647481463
+       -6.3602904971447414       -0.2779874336104952        0.0591791943907785        0.0569852111266852
+       -4.0616659854409720       -0.3524320830164359        0.2636679728371568        0.3189271149812888
-       -3.5801821886586844       -0.8549455329319930       -0.1437231968632985       -0.2877498234141676
+       -2.8088523084851178       -0.4248641215275773        1.0129931449756668        0.5692545008206258
-       -1.4178923568331281       -0.0863309948045592        1.8096252307894347       -0.2058946535748549
-       -2.2837197328177177       -0.3182494990876075        0.8091193845211010       -0.9992971180892700
+       -1.3281165309897784        0.0482648396082751        0.8664182717564506        0.6691943173322236
+       -2.1896378830981811       -0.8207834664419504        3.7099519607679388        0.0628076875181509
+        1.9747345473698767        2.8451289401614872       -0.1188711161973450        0.7576134719858190
-        1.7734388950507338        2.2605465275460106        0.0837940442721865       -0.9235083265987739
+        1.6185549566229029        1.4369128355218135        0.0051134719226984        0.9955526175656415
-        1.8445701745093011        2.5052736325231399       -0.1695128875286224       -0.9936641819349231
-        0.7285146582090841       -0.3465345593376351        0.0106013208394490       -0.9934394819660318
+        1.0568112647994323        0.3789504142381104        0.2461691513250148        0.8475065253219278
+        0.5554479789007410       -0.8054157133027274        0.2421091843402345        0.9207393412409772
-        1.1999671941628260       -0.6510066748250006        0.5664782808368554       -0.6738758902636315
+        4.9668792252399454       -1.5284993618075253       -0.8655734850641404        0.1207489421105395
+        1.6817190493191814       -1.6515152696704973        0.1293023533448800        0.4308753055723465
-        2.1440426739451190       -1.3492400421505306       -0.5454690514925890       -0.7095764258838037
+        2.5855975225813470       -1.0780142899773544       -0.2793606352020393        0.9977500474782615
-        2.4751489178934878       -1.3871658506580624       -0.0032146211459510       -0.9963537733476465
-        1.8745099504728404       -4.1811488450922658       -0.7767024945750528       -0.1586318904925156
+        2.0163786819402563       -4.0733501609712768       -0.4978657321729648        0.3123697133706422
