25
s                      x[A]                      y[A]                      z[A]                      q[e]
N 0.0646194348196644 -0.0051750262785842 0.2440971760472273 0.1158659338886357
O -0.1713955404617870 0.4361648696190219 0.3078783852258901 -0.2341991647481463
N -0.0838903461365931 -0.0076491506537252 -0.3914723793135144 0.0569852111266852
N -0.5126999614576081 -0.0269427113920821 0.1390061228802078 0.3189271149812888
O -0.2380120494687425 -0.3449264900666092 0.2747099241873679 -0.2877498234141676
N 0.0332302316881473 0.1122916627444338 -0.5548586603097100 0.5692545008206258
O -0.1574517769647835 -0.4951834509727171 0.0446571551109601 -0.2058946535748549
O -0.0667978257373667 0.1694646760550546 -0.2712451334977810 -0.9992971180892700
N -0.1888189041734954 -0.0200777077827051 0.2410174283513749 0.6691943173322236
N 0.0171477574259906 -0.0191436641419575 0.3810378973586619 0.0628076875181509
N 0.0567990390608707 0.0049617935805520 0.2953494024098775 0.7576134719858190
O 0.0380667815345935 -0.0752811734793251 -0.0575226739779635 -0.9235083265987739
N 0.1048965131931613 -0.0098754184603057 -0.4753748336429305 0.9955526175656415
O 0.0712162637855743 0.0513773135495080 0.0957769393532996 -0.9936641819349231
O -0.0404379116801580 0.1168987261205511 -0.1266047729805678 -0.9934394819660318
N -0.0293255512451271 -0.0531746296688053 0.2981672719105419 0.8475065253219278
N -0.0810183111909236 0.0185306387719911 -0.4006857132336242 0.9207393412409772
O 0.1580731914488075 -0.2551270581504709 -0.2286054919782173 -0.6738758902636315
N -0.0642902455569075 0.0228665034241560 0.2202806270739728 0.1207489421105395
N 0.2643323851126859 0.0766422437694214 -0.4890626868682835 0.4308753055723465
O 0.3471358699686531 -0.2123361824605581 -0.1262424723594296 -0.7095764258838037
N 0.4504117708363237 -0.0072899774493962 0.1030953833325702 0.9977500474782615
O 0.3031256794611922 0.1250613612682073 -0.0351414713135445 -0.9963537733476465
O -0.0333137711324282 -0.3712592240991675 -0.1416981163215231 -0.1586318904925156
N -0.0315945775889070 -0.2005569459052463 -0.0922758593801448 0.3123697133706422
