25
s                      x[A]                      y[A]                      z[A]                      q[e]
N 0.0635504991706002 0.0015218332061860 0.2400992777594848 0.1158659338886357
O -0.1654142660261207 0.4333859543723235 0.3127050267967670 -0.2341991647481463
N -0.0901234044702213 -0.0105290630173155 -0.3911509674735507 0.0569852111266852
N -0.4998487225692055 -0.0237431336393236 0.1343587612862824 0.3189271149812888
O -0.2393990482341105 -0.3411425896854265 0.2825433872221452 -0.2877498234141676
N 0.0280177197337640 0.1012110246890385 -0.5409984818888394 0.5692545008206258
O -0.1668038350410800 -0.4886839484662742 0.0484232407508534 -0.2058946535748549
O -0.0782786557288767 0.1672194409539934 -0.2596269473001234 -0.9992971180892700
N -0.1859532816995797 -0.0178510817714921 0.2483529875623351 0.6691943173322236
N 0.0210143488105167 -0.0087551037914805 0.3826055755192335 0.0628076875181509
N 0.0399673249020858 0.0061060357715195 0.2600862134376672 0.7576134719858190
O 0.0189031328877478 -0.0728271338660843 -0.0764108192631946 -0.9235083265987739
N 0.0897154767253421 -0.0045445088198493 -0.4892636037636202 0.9955526175656415
O 0.0500194162108595 0.0442895447285559 0.0696017788479514 -0.9936641819349231
O -0.0489503536552128 0.1083184664067273 -0.1170223862554944 -0.9934394819660318
N -0.0342870484960357 -0.0454308797562047 0.2960173258522673 0.8475065253219278
N -0.0835218878939092 0.0169222763239688 -0.3919800952400048 0.9207393412409772
O 0.1517744161322516 -0.2437638489973035 -0.2176950636336328 -0.6738758902636315
N -0.0648819973110448 0.0196951793079824 0.2145585210026821 0.1207489421105395
N 0.2704757858291487 0.0749862577860104 -0.4934244053993634 0.4308753055723465
O 0.3551170148764245 -0.2034698585167949 -0.1350617560800636 -0.7095764258838037
N 0.4543132837480345 -0.0084453084212032 0.0864570948228909 0.9977500474782615
O 0.3129059945791868 0.1181510554169349 -0.0483579432364790 -0.9963537733476465
O -0.0271917175152754 -0.3677668383991666 -0.1296911817688969 -0.1586318904925156
N -0.0235991273762430 -0.1933720673922676 -0.0812635964876751 0.3123697133706422
