21
s                      x[A]                      y[A]                      z[A]                      q[e]
N -1.9166420541380527 1.3769332604776934 -0.9279384089286413 0.0707249461841811
O -1.6932911660242591 0.1978586753085485 0.1352234042080173 -0.3496602100029151
N -1.5047203379555096 0.1725293515160142 -0.3779717291493190 0.9824851761690530
N -3.1187826533281831 -0.3948350775778245 0.0850080431119281 0.1071394941056757
O -1.5499212462728567 0.0077212689964481 -0.4589231386275966 -0.8194842575378962
N -0.6172989145266434 -0.2849352480656726 0.3501760535116090 0.3116552922920345
N -0.9106319556220643 -1.6440846682977339 0.8896278809152119 0.0918298459672651
N -1.4074134341331068 -0.5837500404804695 0.3849770701830946 0.5593901217632046
O -1.0641510604985049 -0.5025487974411458 0.3479522241226479 -0.9963138680841535
N 1.2773590877280137 -0.5095717624976654 -0.0413008914188261 0.9989733053171830
O 1.3249370819672226 -0.5996409334932361 -0.0390544984543223 -0.8354521971080898
N 1.6831379298364930 -1.2656457201178910 -0.2361808070989131 0.2899344186932475
O 1.4281243555555752 -0.9789074109302822 -0.1834654603022861 -0.8678253524624289
N 0.2643798383419187 0.2935830214279483 0.1790679491592004 0.9219570073558310
O 0.4940740556402469 0.2368394120493501 0.3011847628990625 -0.9704818863270434
O 0.4658443408670524 0.3828224983512709 -0.3572197819352136 -0.3320651923316272
N 0.8096021369541631 -0.1932990569486206 -0.0125160106906089 0.9769593393400061
O 0.9662228125336260 1.0188368082324339 0.5819147751113718 -0.1970026432733326
O 0.8009584066501841 1.1036298400990190 -0.4055787497938080 -0.1946060569702309
N 2.1477863771997288 1.5343557662565539 -0.1176405016524358 0.1283355164991325
N 0.1175294679496846 2.1841330332051987 0.3471892322137409 0.1235072004109040
