21
s                      x[A]                      y[A]                      z[A]                      q[e]
N       -1.8954171956045149        1.5100865338662575        0.0801247605686167        0.0707249461841811
O       -1.6230282908604301       -0.0406416800479441        0.3270424946139440       -0.3496602100029151
N       -1.4898658702736522        0.2019000714872546       -0.1488537086217585        0.9824851761690530
N       -3.0721814200435915       -0.5506691851711604        0.0908246887647767        0.1071394941056757
O       -1.5583215831159520        0.0894949342807868       -0.2953427011293849       -0.8194842575378962
N       -0.5235517456361972       -0.6501699255043425       -0.1375166417100162        0.3116552922920345
N       -0.8437946308087947       -2.0002136271994817       -0.0329470215415678        0.0918298459672651
N       -1.2982069731784569       -0.9649090121238054       -0.0270963068727770        0.5593901217632046
O       -0.9968801355044760       -0.7968414819968760       -0.0562023311324259       -0.9963138680841535
N        0.7588726579780513        0.8275047186973209       -0.1240307441533218        0.9989733053171830
O        0.7299347919760351        0.9153238226829570       -0.1383168314535788       -0.8354521971080898
N        0.5976949947808288        1.6815452655841538       -0.0329371649510840        0.2899344186932475
O        0.5844613133320751        1.2876026610511444       -0.0261038136434551       -0.8678253524624289
N        0.5034678492498035       -0.4527954597774806       -0.1233861900645583        0.9219570073558310
O        0.6161298716055069       -0.2910474140741909       -0.2907323212333602       -0.9704818863270434
O        0.7778678945382133       -0.3198868287494435        0.3644336568259335       -0.3320651923316272
N        0.6147213451804319        0.2914619369659320       -0.0535648054317067        0.9769593393400061
O        1.5219118053141254       -0.5004224228403356       -0.5826713480132385       -0.1970026432733326
O        1.5024539250585720       -0.6163299857717789        0.4067595732292322       -0.1946060569702309
N        2.7721240420935662       -0.0367857582969368        0.0273517839371667        0.1283355164991325
N        1.7022042947722757       -1.9111755745466334       -0.2587885451803799        0.1235072004109040

        RMSE         8.909622611E+00 kcal/mol

Coordinates in bohr
s                   x[bohr]                   y[bohr]                   z[bohr]                      q[e]
+       -3.5818193931758624        2.8536499747491240        0.1514138533425682        0.0707249461841811
-       -3.0670789635961215       -0.0768016445690982        0.6180207462068711       -0.3496602100029151
+       -2.8154384584840839        0.3815358398212682       -0.2812927420538242        0.9824851761690530
+       -5.8055814916025046       -1.0406139457025163        0.1716337871953747        0.1071394941056757
-       -2.9448010074790170        0.1691209154065342       -0.5581168182874819       -0.8194842575378962
+       -0.9893694117577734       -1.2286430942125259       -0.2598687905246412        0.3116552922920345
+       -1.5945407583604221       -3.7798559478156255       -0.0622608473631225        0.0918298459672651
+       -2.4532556334668598       -1.8234137689000594       -0.0512045990009092        0.5593901217632046
-       -1.8838304360127480       -1.5058121663780302       -0.1062070134525770       -0.9963138680841535
+        1.4340614876767463        1.5637572858619582       -0.2343841375865079        0.9989733053171830
-        1.3793768462777385        1.7297113409779123       -0.2613809299883749       -0.8354521971080898
+        1.1294798466927123        3.1776600195142977       -0.0622422211065774        0.2899344186932475
-        1.1044718131230160        2.4332163877973683       -0.0493290586161196       -0.8678253524624289
+        0.9514163480554171       -0.8556594098301943       -0.2331661068857008        0.9219570073558310
-        1.1643167150479037       -0.5499999021229409       -0.5494044629496785       -0.9704818863270434
-        1.4699572824637361       -0.6044984974776777        0.6886798023000992       -0.3320651923316272
+        1.1616549858640417        0.5507832368610643       -0.1012228122293615        0.9769593393400061
-        2.8759964991447906       -0.9456613262062862       -1.1010892688963470       -0.1970026432733326
-        2.8392264344798415       -1.1646948760159821        0.7686641923113567       -0.1946060569702309
+        5.2385552253539682       -0.0695150084984985        0.0516873806839417        0.1283355164991325
+        3.2166999266976877       -3.6115984135576484       -0.4890394747965874        0.1235072004109040
