21
s                      x[A]                      y[A]                      z[A]                      q[e]
N -1.8956488776922624 1.5097687187489290 0.0801170199041249 0.0707249461841811
O -1.6216518936999131 -0.0388599293784693 0.3273927519226042 -0.3496602100029151
N -1.4934377544845887 0.1968847079074715 -0.1492730427766744 0.9824851761690530
N -3.0732321147343482 -0.5511214944972603 0.0909103442961036 0.1071394941056757
O -1.5554285929116225 0.0937833866777435 -0.2951448443232134 -0.8194842575378962
N -0.5245437039091140 -0.6518704094192768 -0.1378614162304081 0.3116552922920345
N -0.8440312994100700 -2.0007654961128338 -0.0331039782560467 0.0918298459672651
N -1.3002191432825521 -0.9678520292595524 -0.0276827586719380 0.5593901217632046
O -0.9936195625384345 -0.7916782765108037 -0.0551668224050425 -0.9963138680841535
N 0.7562120253685154 0.8220136593871321 -0.1243950988212893 0.9989733053171830
O 0.7322584710224065 0.9200755959696971 -0.1380717054896475 -0.8354521971080898
N 0.5965775174820674 1.6798253728636787 -0.0329117879403449 0.2899344186932475
O 0.5872607798809459 1.2925967796185471 -0.0259523078013957 -0.8678253524624289
N 0.5009310016694977 -0.4577629113820428 -0.1244230559424332 0.9219570073558310
O 0.6187472379836285 -0.2857981807685388 -0.2899544554145749 -0.9704818863270434
O 0.7787638623208124 -0.3182293467591948 0.3648771376171210 -0.3320651923316272
N 0.6120850150888282 0.2863162737240184 -0.0542076666899943 0.9769593393400061
O 1.5223815618460688 -0.4993171967541928 -0.5825186066432056 -0.1970026432733326
O 1.5029292389196409 -0.6154101863014850 0.4070874861809459 -0.1946060569702309
N 2.7719532634712376 -0.0373206158119774 0.0272538912356271 0.1283355164991325
N 1.7019646053496378 -1.9122114574266524 -0.2592322591280463 0.1235072004109040
