21
s                      x[A]                      y[A]                      z[A]                      q[e]
N 0.0262164240723122 -0.0473640469831533 0.3765173393665378 0.0707249461841811
O 0.1086927834348321 0.2834665673705025 0.3122500651768452 -0.3496602100029151
N 0.3685253728637875 -0.1720932341339679 0.3161256284457634 0.9824851761690530
N 0.0350789081420896 -0.0147688863069394 -0.1892007237844982 0.1071394941056757
O 0.2628133390491565 -0.3366866831557689 0.3194689934174840 -0.8194842575378962
N 0.0925485308443893 0.1219928479736957 0.2876731229304913 0.3116552922920345
N 0.0292378178790597 -0.0128856477234487 0.2453072262396477 0.0918298459672651
N 0.0800409437549612 0.0349887534171826 -0.5526928541251563 0.5593901217632046
O 0.0578837443592184 0.0640721466840369 -0.1941161429353365 -0.9963138680841535
N 0.2183477547131471 0.0808648792411630 -0.4228337232449413 0.9989733053171830
O 0.2056698564522074 0.1023817118958009 -0.3346173695664836 -0.8354521971080898
N 0.0292637960954557 0.0047775285280561 0.4300640112818834 0.2899344186932475
O 0.0404749372513327 0.0002319494402956 0.0362091142537082 -0.8678253524624289
N -0.0054766307428291 0.0740274774354440 -0.3442374737932821 0.9219570073558310
O 0.1256439201538254 0.2454242070880266 -0.1844946830978811 -0.9704818863270434
O 0.2629599696402715 -0.4154433245866288 -0.2042275855189841 -0.3320651923316272
N 0.0846500959974642 0.0094517948402990 0.4011633278851449 0.9769593393400061
O 0.1964358851236314 -0.5161948979076599 -0.0959364082000173 -0.1970026432733326
O 0.2274519278920705 0.4882808517223390 -0.0740944732269132 -0.1946060569702309
N 0.0231433552623070 0.0002446712893665 0.1841400838274310 0.1283355164991325
N 0.0373931564643399 0.0056850619186161 -0.1471528121719270 0.1235072004109040
