8

C         1.776099       0.135275        0.000002
C         0.561588       -0.443715        -0.000001
C         -0.667641       0.358692        -0.000011
O         -1.813397       -0.125813        0.000004
H         -0.529453       1.455413        0.000020
H         2.693113       -0.444769        0.000004
H         1.886924       1.218085        0.000000
H         0.436324       -1.523729        0.000002
