11

C         1.176872       -1.157108        0.042660
C         0.555157       0.206120        -0.060071
H         0.534068       -1.845246        0.600167
H         2.149175       -1.088884        0.529855
H         1.299634       -1.567479        -0.964972
O         -0.735066       0.213117        -0.585864
O         1.126850       1.256653        0.189511
C         -1.850961       -0.145238        0.281195
H         -1.734491       -1.159535        0.678522
H         -2.733167       -0.097028        -0.352753
H         -1.935904       0.577368        1.097298
