8

C         1.570380       0.419810        0.079570
C         0.647701       -0.522093        -0.173275
C         -0.776945       -0.393209        0.213200
O         -1.541993       0.505313        -0.173294
H         -1.172071       -1.207539        0.847430
H         2.621372       0.262217        -0.142481
H         1.296846       1.380005        0.508798
H         0.942978       -1.504230        -0.544356
