8

C         1.492535       0.466314        0.036680
C         0.664376       -0.589226        -0.066044
C         -0.800529       -0.468826        0.070781
O         -1.439864       0.591140        -0.063874
H         -1.342091       -1.404222        0.290580
H         2.570114       0.356641        -0.033142
H         1.099200       1.467166        0.193441
H         1.053392       -1.598271        -0.188395
