21
s                      x[A]                      y[A]                      z[A]                      q[e]
N       -2.0980107359538684        1.6008552008476147       -0.2283051464733699        0.0690680479201058
O       -1.8695544366187349       -0.2184985305305148        0.3689069470849913       -0.3117950550350966
N       -1.9812226062222422       -0.3485549474426566        0.0287545183320906        0.5776243102962968
N       -3.3210292666318439       -0.5496703070759501        0.0118224691292742        0.0604184539076988
O       -1.8372471752606836       -0.3205192603543908       -0.2948010093423784       -0.3968494342195521
O       -0.9294483488924470       -0.1175226171317588        0.1326447442960894       -0.9828651838991298
N       -0.7640324702664035        0.0275111156432227        0.1245251900760646        0.7759263489545838
N       -1.0028610772209776       -1.3609527319010937        0.1747408569881529        0.9970342621901004
O       -1.0022953093058047       -1.4020393408606138       -0.1085472847456604       -0.3970377457969525
O       -1.0586278635692792       -1.3467484690732279        0.4374821255816258       -0.3893757401670396
N        1.7632164055554778       -1.2798222546639870       -0.1390126832324354        0.1691966627363242
O        1.4481292105554340       -0.9566182040039292       -0.0853889024141327       -0.6800109224217911
O        0.3723308864877221        0.4159072303635821       -0.3367870552698358       -0.9821368279659007
N        0.2259252869812500        0.4961592777792616       -0.2081508548309707        0.8921713087406896
O        0.5882076278373617        0.4857470668970729        0.3262568878986759       -0.3335771210350215
N        0.7800690958255617       -0.1206127375701632       -0.0836104095275440        0.9988617281482304
N        2.3164015153315183        1.6557765461598082       -0.0193983064794363        0.0655379221577991
N        1.1040807067386200        1.0775256741943315        0.0199823991914899        0.9908754307264420
O        0.9604340246928033        1.0700590429167405       -0.3293259884493470       -0.6595771554465193
O        1.0434703023346703        1.1115781560351456        0.3858538899606949       -0.5578053818499882
N       -0.1192131465277244        2.2650543661169658        0.0300595790126439        0.0943160920587207

        RMSE         2.499379886E+00 kcal/mol

Coordinates in bohr
s                   x[bohr]                   y[bohr]                   z[bohr]                      q[e]
+       -3.9646656992230302        3.0251778961167761       -0.4314341998672033        0.0690680479201058
-       -3.5329458618440146       -0.4129023815176587        0.6971330957693967       -0.3117950550350966
+       -3.7439681193258183       -0.6586733903399684        0.0543381645171076        0.5776243102962968
+       -6.2758357685642467       -1.0387263396698498        0.0223412287810081        0.0604184539076988
-       -3.4718939860137108       -0.6056936200041119       -0.5570931691656298       -0.3968494342195521
-       -1.7564028271656995       -0.2220855599260624        0.2506622387009935       -0.9828651838991298
+       -1.4438121197605041        0.0519884739714896        0.2353185049643411        0.7759263489545838
+       -1.8951327778292619       -2.5718279329867002        0.3302123626354027        0.9970342621901004
-       -1.8940636314190136       -2.6494703713439751       -0.2051246398313844       -0.3970377457969525
-       -2.0005167309244722       -2.5449857664280127        0.8267214021324207       -0.3893757401670396
+        3.3319961064140315       -2.4185135505808781       -0.2626958992743266        0.1691966627363242
-        2.7365676022252239       -1.8077464121947713       -0.1613616397161555       -0.6800109224217911
-        0.7036034035107215        0.7859507589848684       -0.6364352970594181       -0.9821368279659007
+        0.4269369172100255        0.9376051496077583       -0.3933481084104652        0.8921713087406896
-        1.1115513215178376        0.9179289226799100        0.6165361646726937       -0.3335771210350215
+        1.4741169500438300       -0.2279250412493263       -0.1580007752444280        0.9988617281482304
+        4.3773644605720721        3.1289641971985191       -0.0366574865438287        0.0655379221577991
+        2.0864101561379131        2.0362284173765883        0.0377612618014859        0.9908754307264420
-        1.8149572682405992        2.0221185291821637       -0.6223359241649540       -0.6595771554465193
-        1.9718730914612050        2.1005782819478531        0.7291581764682552       -0.5578053818499882
+       -0.2252801974914730        4.2803324112335508        0.0568043717804570        0.0943160920587207
