25
s                      x[A]                      y[A]                      z[A]                      q[e]
N       -1.7122969269737063        0.6185330437259324       -1.5286453566955718        0.1158659338886357
O       -1.8714902123538419        0.3960886547817223        0.1306164684834523       -0.2341991647481463
N       -3.3778698001020175       -0.0722102076211149        0.0563235005966171        0.0569852111266852
N       -2.1622759416987600       -0.0832643147682116        0.1341007845197611        0.3189271149812888
O       -1.8757989126106334       -0.3505264683760592       -0.1458599649095145       -0.2877498234141676
N       -1.4157950045504344       -0.2055884711319093        0.7524979867314444        0.5692545008206258
O       -0.9991850249918338       -0.2445769006942483       -0.0142107673883788       -0.2058946535748549
O       -1.1214019319495083       -0.1984085726735431        0.6955744379668157       -0.9992971180892700
N       -0.6799999577538351       -0.2872518288688899        0.3942147012324100        0.6691943173322236
N       -1.1190601411635761       -0.7222660384382853        1.8348926207083913        0.0628076875181509
N        1.2897309953634961       -1.3810173652781630       -0.2305877685288175        0.7576134719858190
O        1.0875586097388839       -1.0996538341768778       -0.2383314238587114       -0.9235083265987739
N        0.9722869644396588       -0.6866151767134752       -0.1152957030578575        0.9955526175656415
O        1.2158408311596147       -1.2173977373298903       -0.1552884065846450       -0.9936641819349231
O        0.4150276439001580        0.1488794030183905        0.2063168861465562       -0.9934394819660318
N        0.5626907515057257       -0.1960460704866386       -0.0122248127622495        0.8475065253219278
N        0.2344743897625816        0.3684097989683524        0.1838963112484089        0.9207393412409772
O        0.4348977184886981        0.3469513078511228       -0.1582686773760365       -0.6738758902636315
N        2.4600654503499451        1.1971625491745443       -0.3419234490920941        0.1207489421105395
N        0.7045017677070197        0.9240800499051793        0.0381448895214224        0.4308753055723465
O        1.1175381923790619        0.8016769085282964        0.2085476940591895       -0.7095764258838037
N        1.2685213607007491        0.7167810020542739       -0.0466270948235803        0.9977500474782615
O        1.1216714166814066        0.8716170147458019       -0.1200645856162219       -0.9963537733476465
O        0.8136622615307290        2.2287907990409646        0.5999979860159904       -0.1586318904925156
N        0.8113386572236897        2.1940946089756284        0.4265436098764552        0.3123697133706422

        RMSE         5.841627280E-01 kcal/mol

Coordinates in bohr
s                   x[bohr]                   y[bohr]                   z[bohr]                      q[e]
+       -3.2357722374433675        1.1688580521878438       -2.8887210671074226        0.1158659338886357
-       -3.5366039478236737        0.7484990789384675        0.2468293529082189       -0.2341991647481463
+       -6.3832488096477942       -0.1364575158663548        0.1064359905546670        0.0569852111266852
+       -4.0861093374770743       -0.1573467509358335        0.2534137559513833        0.3189271149812888
-       -3.5447462112656996       -0.6623990249547063       -0.2756353863478717       -0.2877498234141676
+       -2.6754648083916406       -0.3885059049909015        1.4220151048808287        0.5692545008206258
-       -1.8881860458933013       -0.4621833589254258       -0.0268544583966236       -0.2058946535748549
-       -2.1191425279438674       -0.3749378632959924        1.3144451876265371       -0.9992971180892700
+       -1.2850136854776417       -0.5428272855990826        0.7449578199584375        0.6691943173322236
+       -2.1147171847153348       -1.3648850023677557        3.4674445227624284        0.0628076875181509
+        2.4372383567511275       -2.6097445948770810       -0.4357477303999288        0.7576134719858190
-        2.0551879177901631       -2.0780445794039162       -0.4503811181833702       -0.9235083265987739
+        1.8373560781437095       -1.2975146375712974       -0.2178773022214614        0.9955526175656415
-        2.2976061830406840       -2.3005483093055403       -0.2934525589037211       -0.9936641819349231
-        0.7842885814653369        0.2813412974264176        0.3898824098742556       -0.9934394819660318
+        1.0633314136738685       -0.3704733811919477       -0.0231015480556531        0.8475065253219278
+        0.4430923800851319        0.6961936219851619        0.3475136637414427        0.9207393412409772
-        0.8218375805300968        0.6556429507080285       -0.2990844544791524       -0.6738758902636315
+        4.6488499518624691        2.2623093455948284       -0.6461416746559799        0.1207489421105395
+        1.3313153958671771        1.7462582123201911        0.0720833942813345        0.4308753055723465
-        2.1118411183356298        1.5149497982221873        0.3940980258676367       -0.7095764258838037
+        2.3971579560175185        1.3545197858138025       -0.0881124392423192        0.9977500474782615
-        2.1196517802821475        1.6471174441587029       -0.2268891841812426       -0.9963537733476465
-        1.5375988329137185        4.2118042011277392        1.1338318693964977       -0.1586318904925156
+        1.5332078571494800        4.1462379043074229        0.8060506032306290        0.3123697133706422
