21
s                      x[A]                      y[A]                      z[A]                      q[e]
N       -1.9480031180229644        1.4008824621623095        0.4040310088912099        0.0707249461841811
O       -1.5921734029997718       -0.1386676187872568        0.3462173744672333       -0.3496602100029151
N       -1.5082348655247160        0.1713992437819867       -0.0969426988304802        0.9824851761690530
N       -3.0369081712337755       -0.6823511778987836        0.0909277543908597        0.1071394941056757
O       -1.5757952164402229        0.0875138031686646       -0.2523694492662357       -0.8194842575378962
N       -0.4833424924114484       -0.6411423229991527       -0.2338663389438471        0.3116552922920345
N       -0.7581442333418229       -1.9819839600870419       -0.3520186105152768        0.0918298459672651
N       -1.2527109767316498       -0.9883675050775087       -0.1859611856801108        0.5593901217632046
O       -0.9522293907577680       -0.7999771079466919       -0.1896206604358523       -0.9963138680841535
N        0.7348761529831040        0.8834511403656293       -0.1295789442594083        0.9989733053171830
O        0.7082007976248810        0.9803318098938751       -0.1464405436126664       -0.8354521971080898
N        0.5240747004282782        1.7350198490554505       -0.0611561615357213        0.2899344186932475
O        0.5309489626818967        1.3478531804130145       -0.0523101034676432       -0.8678253524624289
N        0.5328098590132950       -0.4071492597568568       -0.1354987239443590        0.9219570073558310
O        0.6572125556411219       -0.2318419446264068       -0.2926220251650613       -0.9704818863270434
O        0.7620976185438298       -0.2518144406670115        0.3738767631693892       -0.3320651923316272
N        0.6072116985119812        0.3415589177318004       -0.0652423560048376        0.9769593393400061
O        1.5647131679153214       -0.5585778833407103       -0.4378619463049159       -0.1970026432733326
O        1.4535886735605119       -0.5114808103968591        0.5596799986132575       -0.1946060569702309
N        2.7570099057921835       -0.0019388714267407        0.2092524806011423        0.1283355164991325
N        1.6981708980354808       -1.9057302691035960        0.1126188962861109        0.1235072004109040

        RMSE         4.042008331E-01 kcal/mol

Coordinates in bohr
s                   x[bohr]                   y[bohr]                   z[bohr]                      q[e]
+       -3.6811923846013048        2.6472841874438036        0.7635079529968034        0.0707249461841811
-       -3.0087716759077638       -0.2620438219773060        0.6542560176181469       -0.3496602100029151
+       -2.8501508287084301        0.3238976288585355       -0.1831951506523485        0.9824851761690530
+       -5.7389247117968214       -1.2894568476122537        0.1718285530016203        0.1071394941056757
-       -2.9778213888785623        0.1653771201859996       -0.4769091415458095       -0.8194842575378962
+       -0.9133849354538160       -1.2115833979082202       -0.4419433305673633        0.3116552922920345
+       -1.4326849646112385       -3.7454068696148486       -0.6652187649380823        0.0918298459672651
+       -2.3672806603775922       -1.8677438958985408       -0.3514157109008195        0.5593901217632046
-       -1.7994527571437453       -1.5117376406550607       -0.3583311159521976       -0.9963138680841535
+        1.3887146652681155        1.6694807005144405       -0.2448687162762475        0.9989733053171830
-        1.3383055493418099        1.8525586327738128       -0.2767325210911022       -0.8354521971080898
+        0.9903576530908021        3.2787123369479825       -0.1155683961867717        0.2899344186932475
-        1.0033481260647137        2.5470733683078968       -0.0988517691482075       -0.8678253524624289
+        1.0068647104789257       -0.7694005931233479       -0.2560554786038534        0.9219570073558310
-        1.2419517363739345       -0.4381177797374681       -0.5529754858387944       -0.9704818863270434
-        1.4401557799114695       -0.4758603272960018        0.7065246870628039       -0.3320651923316272
+        1.1474638103617132        0.6454528102208843       -0.1232901846287620        0.9769593393400061
-        2.9568793522574643       -1.0555592192518752       -0.8274391592762124       -0.1970026432733326
-        2.7468844920968900       -0.9665586500772866        1.0576419152756737       -0.1946060569702309
+        5.2099936471215145       -0.0036639359890156        0.3954298794088359        0.1283355164991325
+        3.2090779115098296       -3.6013082776008427        0.2128188705320893        0.1235072004109040
