21
s                      x[A]                      y[A]                      z[A]                      q[e]
N 0.0235272725123461 0.3141197477669970 0.3419233855060856 0.0707249461841811
O 0.1149651631867579 0.2296812537298260 0.2739834471418194 -0.3496602100029151
N 0.3471849731481224 -0.2594741456358744 0.3538517326818904 0.9824851761690530
N 0.0588327999076399 0.0654406894804889 -0.1968946344080372 0.1071394941056757
O 0.2165485173432186 -0.3921408865024790 0.3869016221870438 -0.8194842575378962
N 0.1155263285585017 0.0187583224017853 0.2923865875543156 0.3116552922920345
N 0.0232656835494843 0.3216260048625078 0.2262517347890879 0.0918298459672651
N 0.1201112223909243 -0.1056401495463121 -0.5438502774362547 0.5593901217632046
O 0.0707674798320391 -0.0719409556576223 -0.1942461064120677 -0.9963138680841535
N 0.2126378129447471 0.0382099339654180 -0.4223882504171235 0.9989733053171830
O 0.1849317365346184 0.0525279471774293 -0.3253876314907720 -0.8354521971080898
N 0.0140977994625443 -0.0491648072545026 0.4303929131047767 0.2899344186932475
O 0.0197891553636672 -0.0580014949477833 0.0432068351639817 -0.8678253524624289
N 0.0042162849355022 0.0217248418957561 -0.3488757250328091 0.9219570073558310
O 0.1133745715661171 0.1907098899544127 -0.1744482631883629 -0.9704818863270434
O 0.2835948915824832 -0.4621752473036276 -0.1941066474191089 -0.3320651923316272
N 0.0891193317316746 -0.0394432545138684 0.3995128522594810 0.9769593393400061
O 0.2431320638334712 -0.5853368977287364 -0.1300037814896501 -0.1970026432733326
O 0.2078244637122923 0.4125974840201902 -0.0180347567832927 -0.1946060569702309
N 0.0502859486538043 -0.2093400999201191 0.1928157478884267 0.1283355164991325
N 0.0171623680116051 -0.1063339481071632 -0.1331854280827080 0.1235072004109040
