25
s                      x[A]                      y[A]                      z[A]                      q[e]
N 0.0818436812563305 -0.0064417352318498 0.2452232990509216 0.1158659338886357
O -0.1675824501010018 0.4203215754215499 0.2895214418671198 -0.2341991647481463
N -0.0819194884048536 -0.0117336531781960 -0.3896854755765338 0.0569852111266852
N -0.5092823964997327 0.0002245945643997 0.1600579981245864 0.3189271149812888
O -0.2388350591345152 -0.3787931055537074 0.2640390752738714 -0.2877498234141676
N 0.0040751066149731 0.1249655402516182 -0.5454432479883795 0.5692545008206258
O -0.1532345419060799 -0.4901375151681625 0.0471973376054496 -0.2058946535748549
O -0.0468155254509863 0.1448907963513104 -0.2560789203733522 -0.9992971180892700
N -0.1854687145110062 -0.0092431565302963 0.2433311391687534 0.6691943173322236
N 0.0200213805244002 0.0006978608582925 0.4124579889680299 0.0628076875181509
N 0.0582697585733382 0.0003548447000475 0.2654668157746982 0.7576134719858190
O 0.0183982694909683 -0.0673052837810208 -0.0807830563556621 -0.9235083265987739
N 0.0987474105278041 -0.0110948821174545 -0.5060058587606555 0.9955526175656415
O 0.0506318193540224 0.0512202596256375 0.0629459735126113 -0.9936641819349231
O -0.0486324444809016 0.1054004036097059 -0.1200471972373843 -0.9934394819660318
N -0.0325363909195604 -0.0496616565827290 0.2789010298617399 0.8475065253219278
N -0.0831226269029029 0.0222879733692953 -0.3983987368771574 0.9207393412409772
O 0.1491715016931428 -0.2434388324227544 -0.2230872505177147 -0.6738758902636315
N -0.0659878777078065 0.0243647269653073 0.2138418783880849 0.1207489421105395
N 0.2680090986619389 0.0740619412760002 -0.4908765302688350 0.4308753055723465
O 0.3575137766554544 -0.2025762850520011 -0.1288435615680820 -0.7095764258838037
N 0.4519354383616398 -0.0051388988429280 0.0803641594999546 0.9977500474782615
O 0.3158723101751169 0.1168979890206145 -0.0445673396483955 -0.9963537733476465
O -0.0283181423908286 -0.3607104435673829 -0.1335356456250494 -0.1586318904925156
N -0.0330664179942795 -0.2012129725651330 -0.0791722080837377 0.3123697133706422
