25
s                      x[A]                      y[A]                      z[A]                      q[e]
N        1.9173216565988669        1.2992337645382677       -0.0059883618425541        0.1158659338886357
O        1.7904047292737859       -0.3224740633064710       -0.4206752143639138       -0.2341991647481463
N        3.2823979504482752       -0.6814210893940330       -0.0113960994957108        0.0569852111266852
N        2.0707406620349875       -0.5542529811359512        0.0000651650938219        0.3189271149812888
O        1.8476501183963898       -0.3716617749856414        0.3787400856214900       -0.2877498234141676
N        1.2862735153903673       -0.9379726520828815        0.1245389536671699        0.5692545008206258
O        0.8197982374203222       -0.5412670534737263       -0.4900158231509611       -0.2058946535748549
O        1.0483180800261347       -0.7667063523238283        0.1450481156959008       -0.9992971180892700
N        0.6547134577796350       -0.4289404920772626       -0.0094782658639576        0.6691943173322236
N        0.7553972667737836       -2.2003066899178134       -0.0009579691515024        0.0628076875181509
N       -0.5316793353366465        1.5980574399056560        0.0013300818276444        0.7576134719858190
O       -0.5026748206900743        1.2504361126847643       -0.0679912371014938       -0.9235083265987739
N       -0.5946008895589155        0.8287371409060357       -0.0104384963214876        0.9955526175656415
O       -0.5307817872659657        1.3948172384683717        0.0501700327291614       -0.9936641819349231
O       -0.4767367329619525       -0.1978204844707593        0.1054040275639486       -0.9934394819660318
N       -0.4815976959899720        0.2015018516325938       -0.0493972623745268        0.8475065253219278
N       -0.4504347212770983       -0.4772177237660729        0.0219504989741434        0.9207393412409772
O       -0.6776286735349096       -0.2949117508354312       -0.2431104440607081       -0.6738758902636315
N       -2.8462878282655577       -0.0267401000862996       -0.0239901173420632        0.1207489421105395
N       -1.1583134895615932       -0.7023620862472145       -0.0741677049700305        0.4308753055723465
O       -1.4163768119761515       -0.4327381627209251        0.2024671885052798       -0.7095764258838037
N       -1.5420214153936593       -0.2407791232721445        0.0053204649070419        0.9977500474782615
O       -1.5098106993194844       -0.4226104742343918       -0.1167948578190639       -0.9963537733476465
O       -1.8284306820570970       -1.8765261236637150        0.3611408187294617       -0.1586318904925156
N       -1.8278640259604941       -1.8229022397949106        0.2005496743547290        0.3123697133706422

        RMSE         4.623954121E-01 kcal/mol

Coordinates in bohr
s                   x[bohr]                   y[bohr]                   z[bohr]                      q[e]
+        3.6232128253809615        2.4551959879248888       -0.0113163638225692        0.1158659338886357
-        3.3833745920519234       -0.6093876622127800       -0.7949609429160600       -0.2341991647481463
+        6.2028331611113350       -1.2876992350658383       -0.0215355069453615        0.0569852111266852
+        3.9131327280953552       -1.0473863385654918        0.0001231441802632        0.3189271149812888
-        3.4915526994389072       -0.7023389660243953        0.7157150345570644       -0.2877498234141676
+        2.4307046665176588       -1.7725114256059871        0.2353445143820329        0.5692545008206258
-        1.5491941468574622       -1.0228464917988798       -0.9259957028960941       -0.2058946535748549
-        1.9810340636151771       -1.4488650245408126        0.2741012136789734       -0.9992971180892700
+        1.2372291258550070       -0.8105800541451397       -0.0179113266271557        0.6691943173322236
+        1.4274939501218555       -4.1579770359573285       -0.0018102993329768        0.0628076875181509
+       -1.0047283303517143        3.0198908941719713        0.0025134903786962        0.7576134719858190
-       -0.9499177412678627        2.3629817903563279       -0.1284848170528904       -0.9235083265987739
+       -1.1236328352199474        1.5660862263073609       -0.0197258992092106        0.9955526175656415
-       -1.0030322103136946        2.6358225757726235        0.0948076215633706       -0.9936641819349231
-       -0.9009018592436137       -0.3738265376551184        0.1991847446160707       -0.9934394819660318
+       -0.9100877480725468        0.3807833133582397       -0.0933472972352382        0.8475065253219278
+       -0.8511982606106477       -0.9018108001322651        0.0414804313782741        0.9207393412409772
-       -1.2805326077382524       -0.5573024402582238       -0.4594121575131740       -0.6738758902636315
+       -5.3787044696460482       -0.0505314657304375       -0.0453347514940957        0.1207489421105395
+       -2.1888952626947660       -1.3272719839124256       -0.1401566497471151        0.4308753055723465
-       -2.6765642650840036       -0.8177566115763530        0.3826075356664221       -0.7095764258838037
+       -2.9139981546848559       -0.4550065997122024        0.0100542215344186        0.9977500474782615
-       -2.8531287229997835       -0.7986180540528526       -0.2207102941398175       -0.9963537733476465
-       -3.4552332284719722       -3.5461204409914293        0.6824572401222936       -0.1586318904925156
+       -3.4541624036420715       -3.4447859866960333        0.3789839590801913        0.3123697133706422
