21
s                      x[A]                      y[A]                      z[A]                      q[e]
N        1.9385661158018703        1.3401807902293892        0.7927410789417543        0.0690680479201058
O        1.8615662021435677       -0.2615362878539446       -0.2936470217584377       -0.3117950550350966
N        1.9191729568719011       -0.4698132843931578        0.0240925583530489        0.5776243102962968
N        3.2537460942869636       -0.6754701229679645        0.1381273808301810        0.0604184539076988
O        1.7237185639165520       -0.5200979337930318        0.3115666781144166       -0.3968494342195521
O        0.6072618303189400       -0.9209918259444391       -0.1504051265612019       -0.9828651838991298
N        0.3877606268359730       -0.9147805141796667       -0.1252935207480979        0.7759263489545838
N        0.9938217506278234       -1.3969818288675202       -0.5171000302469313        0.9970342621901004
O        0.9435462026346192       -1.5048779477273637       -0.2653455846359226       -0.3970377457969525
O        1.0873266764430733       -1.3211574260669288       -0.7656403050851981       -0.3893757401670396
N       -0.6256366327772442        1.7780385288529812       -0.2018818564842141        0.1691966627363242
O       -0.5975003147725398        1.3286972987264563       -0.1593875512938455       -0.6800109224217911
O       -0.7362229690337186       -0.4043452252177651       -0.4226473075670100       -0.9821368279659007
N       -0.6637183687083645       -0.5684473850058049       -0.3023019246706811        0.8921713087406896
O       -0.8476777603707628       -0.3265858516177909        0.2657564120780336       -0.3335771210350215
N       -0.6512224804368493        0.2582294236451411       -0.1658827797642429        0.9988617281482304
N       -2.9097204906475369       -0.0780490752664873        0.4443231960626646        0.0655379221577991
N       -1.6396264867749677       -0.4358326871055799        0.1963336725342679        0.9908754307264420
O       -1.6036389034776717       -0.5222565377792459       -0.1728847623866630       -0.6595771554465193
O       -1.5303999623660027       -0.4922540834763521        0.5449168038190165       -0.5578053818499882
N       -1.4812305915039956       -2.1308810050222484        0.1871286522730248        0.0943160920587207

        RMSE         1.392857073E+00 kcal/mol

Coordinates in bohr
s                   x[bohr]                   y[bohr]                   z[bohr]                      q[e]
+        3.6633590349580998        2.5325746521331940        1.4980635275998595        0.0690680479201058
-        3.5178502864600083       -0.4942319559128578       -0.5549124486798029       -0.3117950550350966
+        3.6267112758729811       -0.8878184376048989        0.0455283369488736        0.5776243102962968
+        6.1486889999804450       -1.2764535383387743        0.2610229201958559        0.0604184539076988
-        3.2573560031697575       -0.9828426532853280        0.5887756914549228       -0.3968494342195521
-        1.1475585457470396       -1.7404223148203153       -0.2842244970654944       -0.9828651838991298
+        0.7327613869558420       -1.7286846367050612       -0.2367704395082730        0.7759263489545838
+        1.8780509262096325       -2.6399130588008095       -0.9771774366326593        0.9970342621901004
-        1.7830439096951658       -2.8438071734457591       -0.5014304835613842       -0.3970377457969525
-        2.0547496273817067       -2.4966257038812945       -1.4468504872230008       -0.3893757401670396
+       -1.1822818900026237        3.3600058600440810       -0.3815014184541471        0.1691966627363242
-       -1.1291119547949444        2.5108739982286288       -0.3011988197527295       -0.6800109224217911
-       -1.3912597787451477       -0.7641017357981401       -0.7986876589637889       -0.9821368279659007
+       -1.2542459412944480       -1.0742098743936541       -0.5712678448263705        0.8921713087406896
-       -1.6018788097422110       -0.6171578160070332        0.5022068349117964       -0.3335771210350215
+       -1.2306321347669635        0.4879828882241406       -0.3134730226840570        0.9988617281482304
+       -5.4985748289566203       -0.1474913765989055        0.8396491517465382        0.0655379221577991
+       -3.0984450080512906       -0.8236044151519015        0.3710168702950880        0.9908754307264420
-       -3.0304383317023005       -0.9869218236325942       -0.3267048521756459       -0.6595771554465193
-       -2.8920367912827123       -0.9302254019085612        1.0297435203777736       -0.5578053818499882
+       -2.7991201465924527       -4.0267815054323766        0.3536219030220483        0.0943160920587207
