25
s                      x[A]                      y[A]                      z[A]                      q[e]
N 0.0663542051901857 -0.0065729697641453 0.2429109239429184 0.1158659338886357
O -0.1695136127874849 0.4334203077698844 0.3048131841882662 -0.2341991647481463
N -0.0826513977679653 -0.0084585740101272 -0.3914327596360973 0.0569852111266852
N -0.5151331795785365 -0.0234299433603412 0.1430840015331314 0.3189271149812888
O -0.2359715877277920 -0.3483402818724854 0.2711181623946677 -0.2877498234141676
N 0.0276148712010016 0.1149845908165090 -0.5556731168975741 0.5692545008206258
O -0.1549153551624046 -0.4966045226396353 0.0452934972956622 -0.2058946535748549
O -0.0611385658037065 0.1663560916717917 -0.2697483103609176 -0.9992971180892700
N -0.1925050631384328 -0.0174206212067503 0.2399827267744772 0.6691943173322236
N 0.0167191137094662 -0.0183503104326730 0.3822492433720545 0.0628076875181509
N 0.0560901682646437 0.0062689139336561 0.2935891149844771 0.7576134719858190
O 0.0388064141326535 -0.0767045179899581 -0.0576972713735622 -0.9235083265987739
N 0.1040480521534591 -0.0080865999414038 -0.4762859346274505 0.9955526175656415
O 0.0718704073930038 0.0499042160814968 0.0956107138286933 -0.9936641819349231
O -0.0400177242618540 0.1144028262085727 -0.1285564468562494 -0.9934394819660318
N -0.0301024614858632 -0.0510279439142551 0.2987261343929762 0.8475065253219278
N -0.0813479155648674 0.0209184444706551 -0.3983764086991843 0.9207393412409772
O 0.1578956437198319 -0.2568696134696173 -0.2304307874241003 -0.6738758902636315
N -0.0645250992366738 0.0224478334448672 0.2206103816533544 0.1207489421105395
N 0.2654691218218815 0.0749690659570384 -0.4875804765638360 0.4308753055723465
O 0.3465862801076151 -0.2103406983367880 -0.1277584583579665 -0.7095764258838037
N 0.4508942221859151 -0.0089223442063419 0.1038259763401882 0.9977500474782615
O 0.3028048309831117 0.1265519937014908 -0.0370397297719485 -0.9963537733476465
O -0.0320991729605122 -0.3702707498996987 -0.1428138584496572 -0.1586318904925156
N -0.0333046569007187 -0.2017115416696578 -0.0901349420640676 0.3123697133706422
