21
s                      x[A]                      y[A]                      z[A]                      q[e]
N -0.2316957562805072 1.6908677846638553 -0.0468648440723376 0.0690680479201058
O -0.5103555536904119 -0.1296748669134364 0.5231542165764029 -0.3117950550350966
N -0.3263617263440257 -0.2598481331383766 0.2133808154558414 0.5776243102962968
N -0.0711670443382093 0.4514230818422051 -0.3579111247575889 0.0604184539076988
O 0.0100416641794924 -0.2277176712272015 0.1086287686390575 -0.3968494342195521
O 0.0104057157353002 0.4105571565360432 0.1108319311188814 -0.9828651838991298
N -0.1261037861081921 0.3697773271877426 0.2764395190722063 0.7759263489545838
N 1.2269175205423768 0.4955198100151643 -0.0256224405659347 0.9970342621901004
O 1.2345794488753552 0.7664462006914454 0.0474595815605097 -0.3970377457969525
O 1.2305288287270539 0.2508160788993251 -0.1498118588572346 -0.3893757401670396
N -0.2879013413879001 0.1467846485973839 0.3641853074567176 0.1691966627363242
O 0.0858422177496855 0.1073038790757966 0.1068293271483546 -0.6800109224217911
O -0.1476393342747603 0.4470748201043698 0.4431470421914573 -0.9821368279659007
N -0.3438538754595635 0.3741381211802902 0.4552709438862980 0.8921713087406896
O -0.1812061815729325 -0.2493255406091499 0.5132398709894380 -0.3335771210350215
N 0.3226876938526648 0.0721958468355084 0.0452574402504296 0.9988617281482304
N 1.0707493434650681 -0.4170762555172850 0.8486533065402452 0.0655379221577991
N 0.1732964096055034 -0.0915641363270484 -0.0973922857640140 0.9908754307264420
O 0.1518443528626661 0.2840053292710900 -0.1205687896896425 -0.6595771554465193
O -0.0015328135180239 -0.4210498394393770 -0.1155022283663815 -0.5578053818499882
N -1.3232079265636902 0.3027987855584804 0.6190195623424871 0.0943160920587207
