25
s                      x[A]                      y[A]                      z[A]                      q[e]
N        1.9711422067492173        1.2448809374356795        0.0358763312274448        0.1158659338886357
O        1.8179319885824659       -0.3909393253732003       -0.2920448227449496       -0.2341991647481463
N        3.2259005121613176       -0.7694762926779118        0.3798905585262336        0.0569852111266852
N        2.0440688653842205       -0.5998400688608834        0.2283957449233407        0.3189271149812888
O        1.7572596305612360       -0.4061788309612869        0.4878641340195661       -0.2877498234141676
N        1.2138186363631644       -1.0007703366394021        0.1958490884744060        0.5692545008206258
O        0.8538417469110066       -0.5550711320656925       -0.5385494379732372       -0.2058946535748549
O        1.0193299957068604       -0.7570895782239140        0.2103029945852491       -0.9992971180892700
N        0.6401859194718347       -0.4451454240011961       -0.0787761973986077        0.6691943173322236
N        0.6740639338861156       -2.1753284321794673        0.0569974890167174        0.0628076875181509
N       -0.4843918184799221        1.6587495578525133       -0.1773423721854353        0.7576134719858190
O       -0.4518763830249116        1.3055776793410367       -0.2500684398449166       -0.9235083265987739
N       -0.5753861746305864        0.8911186005365804       -0.1919812261777290        0.9955526175656415
O       -0.4847158092960973        1.4617934110763957       -0.1272410105837994       -0.9936641819349231
O       -0.4941473213086039       -0.1652090149516631       -0.0459330083794193       -0.9934394819660318
N       -0.4757538632816040        0.2458389087419622       -0.2193111044529124        0.8475065253219278
N       -0.4744546730705823       -0.4576816928534201       -0.1388742802601864        0.9207393412409772
O       -0.6672607402196247       -0.2601868759166887       -0.4343107373553162       -0.6738758902636315
N       -2.8358022626842563       -0.0005638723274474        0.2383762664077972        0.1207489421105395
N       -1.1772776182611910       -0.6532717163523131       -0.2944591819949088        0.4308753055723465
O       -1.1790172036208491       -1.0510731510766329        0.2729838583243967       -0.7095764258838037
N       -1.5643724764960996       -0.2110640929221219        0.0628472359646802        0.9977500474782615
O       -1.5431732211439970       -0.3652896421319262       -0.1340120379614389       -0.9963537733476465
O       -1.8417469583705928       -1.9004275639694106       -0.0282807411656932       -0.1586318904925156
N       -1.8544809750603566       -1.8065690832475507       -0.1739589915450269        0.3123697133706422

        RMSE         6.080754021E+00 kcal/mol

Coordinates in bohr
s                   x[bohr]                   y[bohr]                   z[bohr]                      q[e]
+        3.7249189250865915        2.3524840305566355        0.0677964404060809        0.1158659338886357
-        3.4353935731297880       -0.7387682566265951       -0.5518847313458319       -0.2341991647481463
+        6.0960684759590302       -1.4540994531938842        0.7178891132617897        0.0569852111266852
+        3.8627303371515023       -1.1335334492228339        0.4316054061250391        0.3189271149812888
-        3.3207394330839390       -0.7675667484754629        0.9219295997306333       -0.2877498234141676
+        2.2937847887030673       -1.8911818507307037        0.3701011391371867        0.5692545008206258
-        1.6135270561442800       -1.0489324197519916       -1.0177109427886564       -0.2058946535748549
-        1.9262545233500701       -1.4306919552815782        0.3974150631297615       -0.9992971180892700
+        1.2097760571761673       -0.8412029373630624       -0.1488654382883719        0.6691943173322236
+        1.2737962260934710       -4.1107749697407563        0.1077096440803865        0.0628076875181509
+       -0.9153678743395347        3.1345823750655155       -0.3351285138694827        0.7576134719858190
-       -0.8539226064795638        2.4671842494653600       -0.4725608639274183       -0.9235083265987739
+       -1.0873222864266594        1.6839701003153942       -0.3627919387054828        0.9955526175656415
-       -0.9159801282492694        2.7623891989331795       -0.2404506619298617       -0.9936641819349231
-       -0.9338031029018726       -0.3121997917153106       -0.0868008059554619       -0.9934394819660318
+       -0.8990445047307388        0.4645682085037288       -0.4144379236876793        0.8475065253219278
+       -0.8965893910470319       -0.8648930521288734       -0.2624343555618265        0.9207393412409772
-       -1.2609400532853536       -0.4916819369210207       -0.8207283469471941       -0.6738758902636315
+       -5.3588896224268616       -0.0010655642686001        0.4504658583199097        0.1207489421105395
+       -2.2247322721449407       -1.2345046294136419       -0.5564472090967204        0.4308753055723465
-       -2.2280196120465505       -1.9862403933567958        0.5158647289038909       -0.7095764258838037
+       -2.9562355387818418       -0.3988533305409925        0.1187640637152690        0.9977500474782615
-       -2.9161747521027217       -0.6902973800958414       -0.2532460492615773       -0.9963537733476465
-       -3.4803973437154001       -3.5912876171731734       -0.0534428554281211       -0.1586318904925156
+       -3.5044611477360630       -3.4139207940572946       -0.3287348510809349        0.3123697133706422
