25
s                      x[A]                      y[A]                      z[A]                      q[e]
N       -1.8697006705382659        1.2405242927540128        0.5643911662934933        0.1158659338886357
O       -1.7213504432411078       -0.4304179485814940        0.4623430958235051       -0.2341991647481463
N       -3.2880983007959488       -0.6372247865621892        0.1155976869964188        0.0569852111266852
N       -2.0954308098257624       -0.5169265086454153        0.0102124879210392        0.3189271149812888
O       -1.8867299454208490       -0.2457121143031336       -0.2841792578419612       -0.2877498234141676
N       -1.3060963129941214       -0.9042318906452685       -0.3466864808284028        0.5692545008206258
O       -0.8814965531467555       -0.4910492462980440        0.3061367576764739       -0.2058946535748549
O       -1.0733747644599938       -0.7076439415032220       -0.3704723264499293       -0.9992971180892700
N       -0.6743837033108725       -0.3891901449694341       -0.1620074026440310        0.6691943173322236
N       -0.8383309134798520       -2.0627805066730196       -0.6241009110239581        0.0628076875181509
N        0.5880346941274316        1.6186274807048722       -0.0915369708988863        0.7576134719858190
O        0.5573479754520284        1.2747082258991278       -0.0096816623713343       -0.9235083265987739
N        0.6302792185432997        0.8482154059271425       -0.0656076745290328        0.9955526175656415
O        0.6021915240984934        1.4260948040886317       -0.1342301032141950       -0.9936641819349231
O        0.4900464164104470       -0.2077801087214388       -0.1897109754678355       -0.9934394819660318
N        0.4897308874165202        0.2139237659821372       -0.0290117214224544        0.8475065253219278
N        0.4414677019453610       -0.4822466647690892       -0.0988875288088399        0.9207393412409772
O        0.6535096814032595       -0.3072666552289928        0.1971648800380803       -0.6738758902636315
N        2.8174253072499416       -0.0980183318071906        0.3226673489886170        0.1207489421105395
N        1.1186912546552996       -0.7247229451823898        0.1313606525198178        0.4308753055723465
O        1.4269362343679559       -0.4768427665518073       -0.1181695662756730       -0.7095764258838037
N        1.5428934263990333       -0.2680779077638946        0.0978159077667735        0.9977500474782615
O        1.4736242463993565       -0.4571640863290259        0.2286461694397761       -0.9963537733476465
O        1.8038588776886670       -1.9403208169054944       -0.1700807101356104       -0.1586318904925156
N        1.7790210401107092       -1.8832283935309442       -0.0059468622371324        0.3123697133706422

        RMSE         6.020656694E-01 kcal/mol

Coordinates in bohr
s                   x[bohr]                   y[bohr]                   z[bohr]                      q[e]
+       -3.5332222039021808        2.3442511652823530        1.0665447319224279        0.1158659338886357
-       -3.2528809036611337       -0.8133720423004133        0.8737018271027296       -0.2341991647481463
+       -6.2136052620875963       -1.2041803269558573        0.2184479691596292        0.0569852111266852
+       -3.9597903454169967       -0.9768495283289432        0.0192988052303102        0.3189271149812888
-       -3.5654028695454008       -0.4643286017401118       -0.5370209678571705       -0.2877498234141676
+       -2.4681643250291359       -1.7087506272244899       -0.6551425001644673        0.5692545008206258
-       -1.6657870659824487       -0.9279485896157895        0.5785146289441850       -0.2058946535748549
-       -2.0283843348071930       -1.3372532437805897       -0.7000912340515726       -0.9992971180892700
+       -1.2744005027295566       -0.7354627847194591       -0.3061496212939910        0.6691943173322236
+       -1.5842158289818025       -3.8980902145451406       -1.1793797964840051        0.0628076875181509
+        1.1112245241682104        3.0587626376719834       -0.1729798053528983        0.7576134719858190
-        1.0532350301827265        2.4088494368175808       -0.0182956903209725       -0.9235083265987739
+        1.1910551056144174        1.6028948125963380       -0.1239805365880474        0.9955526175656415
-        1.1379770556181903        2.6949286086659505       -0.2536581328667651       -0.9936641819349231
-        0.9260535157778075       -0.3926474998013708       -0.3585017866276578       -0.9934394819660318
+        0.9254572523946445        0.4042573294327714       -0.0548242079165167        0.8475065253219278
+        0.8342530499119784       -0.9113141213290510       -0.1868703466720285        0.9207393412409772
-        1.2349543181873612       -0.5806498258682709        0.3725876248307190       -0.6738758902636315
+        5.3241622096362633       -0.1852278023898422        0.6097529192160080        0.1207489421105395
+        2.1140200902433159       -1.3695278832299034        0.2482356569238875        0.4308753055723465
-        2.6965186814475408       -0.9011022336885385       -0.2233081166251596       -0.7095764258838037
+        2.9156460166633980       -0.5065938259595055        0.1848452763922452        0.9977500474782615
-        2.7847462375289678       -0.8639149175570182        0.4320786398762023       -0.9963537733476465
-        3.4087992478073113       -3.6666749394759881       -0.3214059613796831       -0.1586318904925156
+        3.3618625372363660       -3.5587858954594012       -0.0112379409340077        0.3123697133706422
