25
s                      x[A]                      y[A]                      z[A]                      q[e]
N -1.8698575523736150 1.2405564603156094 0.5642399524922509 0.1158659338886357
O -1.7210654194643598 -0.4304489364203249 0.4624824815731441 -0.2341991647481463
N -3.2881461717436431 -0.6372310069098190 0.1155775153348016 0.0569852111266852
N -2.0957202011872016 -0.5168824956372662 0.0100848426466918 0.3189271149812888
O -1.8864932140217299 -0.2458359671235554 -0.2840130883048679 -0.2877498234141676
N -1.3064835505171910 -0.9040750610393523 -0.3468375422566408 0.5692545008206258
O -0.8811960285150782 -0.4911209345756206 0.3063128674658699 -0.2058946535748549
O -1.0730169588474208 -0.7078894262741244 -0.3703224915158969 -0.9992971180892700
N -0.6747994571529630 -0.3890110801964530 -0.1622800802893762 0.6691943173322236
N -0.8384541836764540 -2.0627044975520334 -0.6240928016154881 0.0628076875181509
N 0.5877310562291760 1.6186644748736874 -0.0919371583529278 0.7576134719858190
O 0.5577540421167554 1.2747741437078497 -0.0092474917031797 -0.9235083265987739
N 0.6299613756803686 0.8482811349045107 -0.0660186112896480 0.9955526175656415
O 0.6025975405559196 1.4261966339874048 -0.1338264323163220 -0.9936641819349231
O 0.4904296309928001 -0.2079757192960474 -0.1893949529937504 -0.9934394819660318
N 0.4893821084736756 0.2140337190874481 -0.0293804673151700 0.8475065253219278
N 0.4411201307091585 -0.4820922337362332 -0.0991833711660771 0.9207393412409772
O 0.6538640669110529 -0.3073984020591223 0.1974971411551207 -0.6738758902636315
N 2.8173731940368341 -0.0979983318681344 0.3225293915809708 0.1207489421105395
N 1.1184531318286102 -0.7246015989800918 0.1311217972062237 0.4308753055723465
O 1.4272149438963788 -0.4769844410198192 -0.1179023201360370 -0.7095764258838037
N 1.5426847433167448 -0.2679770684982946 0.0975114983809309 0.9977500474782615
O 1.4739143712346405 -0.4572616799956395 0.2289564649950341 -0.9963537733476465
O 1.8039358233034632 -1.9404570647779094 -0.1700123795514733 -0.1586318904925156
N 1.7789445354300613 -1.8831182596481115 -0.0060701149125625 0.3123697133706422
