25
s                      x[A]                      y[A]                      z[A]                      q[e]
N -2.4264390322415772 0.1602847117343079 -0.1501076273974736 0.1158659338886357
O -1.0782633092018532 1.1789144061235288 -0.4216434602154915 -0.2341991647481463
N -1.9096006510846881 2.4840826747954101 0.0051949076789595 0.0569852111266852
N -1.1933992821266544 1.5188721502502194 0.0628331878476044 0.3189271149812888
O -1.1809079277586618 1.2002093200776862 0.3541924423920202 -0.2877498234141676
N -0.3392262625886501 1.2126238536119416 0.2241196747356021 0.5692545008206258
O -0.2904779061362187 0.6110075959328058 -0.4286809698977084 -0.2058946535748549
O -0.3716013607161574 0.9103489252445867 0.2564593990008308 -0.9992971180892700
N -0.2934405839194729 0.3929377915160961 0.0415501703823650 0.6691943173322236
N 0.8853404123116444 1.6521545611380066 0.3016143440565536 0.0628076875181509
N -0.9955352006944880 -1.8835251359155551 -0.0891452126191123 0.7576134719858190
O -0.7479787646541445 -1.6197291202175954 -0.1329309322280043 -0.9235083265987739
N -0.3856797444695648 -1.4126394741787063 -0.0291812472668872 0.9955526175656415
O -0.8534329426409398 -1.7495980456139981 -0.0201803037202296 -0.9936641819349231
O 0.2683999044311144 -0.6360240897912950 0.1927988491202757 -0.9934394819660318
N -0.0280239712618591 -0.9086431173473586 -0.0191591404716067 0.8475065253219278
N 0.4772179955124403 -0.4337339396553563 0.1191355769883388 0.9207393412409772
O 0.5073039752679753 -0.7139287740814959 -0.1631206157327456 -0.6738758902636315
N 2.9086876666905725 0.1082091406540966 -0.1189682040288045 0.1207489421105395
N 1.1108281267885636 -0.8262981239297984 0.0679228744704196 0.4308753055723465
O 1.4736802235647957 -0.3580073546540997 -0.1712715633772469 -0.7095764258838037
N 1.6264603945366867 -0.1006702869749869 -0.0378163592241981 0.9977500474782615
O 1.5898618319431108 -0.2585561107806521 0.1465448007278955 -0.9963537733476465
O 1.8976305234501838 -1.7896134322171264 0.0355619172490934 -0.1586318904925156
N 1.8984453298352195 -1.6995598944669472 0.1862578671646796 0.3123697133706422
