25
s                      x[A]                      y[A]                      z[A]                      q[e]
N 1.4496057141283942 0.0037846347079091 -0.0770748721729996 0.1158659338886357
O 0.2457071525021172 -0.4393247685043689 0.2282915638683114 -0.2341991647481463
N -0.8527584573220516 -0.0062361631367178 0.2337422765915013 0.0569852111266852
N -0.0993386535384676 0.0318256498065414 0.3783110880335321 0.3189271149812888
O 0.1785911537045246 0.3400885818765789 0.2586397237325862 -0.2877498234141676
N -0.0253332842449913 0.1135155396245489 -0.5367096027546316 0.5692545008206258
O 0.2915194071467079 0.4964153931902673 -0.4687749630031228 -0.2058946535748549
O 0.2714806273346355 0.1691270707214174 -0.5843855565014602 -0.9992971180892700
N 0.1200969264443563 0.0198661073842946 -0.3583410295643618 0.6691943173322236
N 1.0581305807720955 0.0206095408492598 -0.3499647392485170 0.0628076875181509
N -1.0130430121720395 -0.0031171651295249 0.3274921809988611 0.7576134719858190
O -0.9955370138438597 0.0735896712785956 -0.0283157973203090 -0.9235083265987739
N -1.1041725906916997 0.0119569837085040 -0.4397892738878448 0.9955526175656415
O -1.0190163059473654 -0.0533845119510071 0.1266858326804071 -0.9936641819349231
O -0.3157725297082457 -0.1182578262616228 0.4992085999103272 -0.9934394819660318
N -0.7008480504706095 0.0546135644342289 0.6693460831606864 0.8475065253219278
N -0.0515947177633362 -0.0177919124627401 0.3988628899541518 0.9207393412409772
O -0.3146480622062744 0.2550056262238747 0.2744952470149448 -0.6738758902636315
N -0.4468900486395151 0.0228389719561395 0.3089532958335532 0.1207489421105395
N -0.1519495864460214 0.0767536243152413 -0.3354267122717259 0.4308753055723465
O -0.0858615145074966 0.2119049269910224 0.6668239451153172 -0.7095764258838037
N 0.0248577518224453 0.0079760621440911 0.4354612413253204 0.9977500474782615
O -0.1264659888939088 -0.1261104646089504 0.5746673988058945 -0.9963537733476465
O -1.0540380904228570 0.3706514915573842 0.0825216649053632 -0.1586318904925156
N -1.0467347735998962 0.2016543196860473 0.0355515642603551 0.3123697133706422
