21
s                      x[A]                      y[A]                      z[A]                      q[e]
N       -1.9183846834797911        1.3815552581006894       -0.9274972108890179        0.0707249461841811
O       -1.6980064977536893        0.1991997554848359        0.1343846408214355       -0.3496602100029151
N       -1.5094816384587957        0.1733896748439444       -0.3788114280132464        0.9824851761690530
N       -3.1263136881742359       -0.3920534411053979        0.0837779495236961        0.1071394941056757
O       -1.5549979889453078        0.0086500678049078       -0.4597296992796850       -0.8194842575378962
N       -0.6191904831400011       -0.2871844294407314        0.3511404357055793        0.3116552922920345
N       -0.9138215106982277       -1.6478838025087756        0.8918292880274872        0.0918298459672651
N       -1.4089772324470531       -0.5868453329138078        0.3861879604745551        0.5593901217632046
O       -1.0658146185830508       -0.5052752418786136        0.3490496017263616       -0.9963138680841535
N        1.2796874713038804       -0.5127470816490032       -0.0419796639715619        0.9989733053171830
O        1.3272499392185038       -0.6028280673474732       -0.0397480936856441       -0.8354521971080898
N        1.6852146264916819       -1.2689259929143288       -0.2369908835908520        0.2899344186932475
O        1.4302960329391863       -0.9821309047307802       -0.1841834448386695       -0.8678253524624289
N        0.2644415187481455        0.2934826896145679        0.1793981258785275        0.9219570073558310
O        0.4941849914354385        0.2366973080401020        0.3014217901819690       -0.9704818863270434
O        0.4656907307556584        0.3826379265452740       -0.3569928397041904       -0.3320651923316272
N        0.8094813625440860       -0.1935300260459301       -0.0123978841297942        0.9769593393400061
O        0.9709709857082217        1.0227402476637177        0.5825560988067546       -0.1970026432733326
O        0.8041871572484484        1.1067682887582508       -0.4047529522358967       -0.1946060569702309
N        2.1532450181936547        1.5380774818327307       -0.1195283482916525        0.1283355164991325
N        0.1213413118474937        2.1900479910353186        0.3485884186077604        0.1235072004109040

        RMSE         1.522086817E+00 kcal/mol

Coordinates in bohr
s                   x[bohr]                   y[bohr]                   z[bohr]                      q[e]
+       -3.6252216550499075        2.6107610649965056       -1.7527157107062461        0.0707249461841811
-       -3.2087672400022957        0.3764329821245057        0.2539501666205332       -0.3496602100029151
+       -2.8525068880944739        0.3276589984372397       -0.7158498521386191        0.9824851761690530
+       -5.9078766529192714       -0.7408736302325124        0.1583173799522157        0.1071394941056757
-       -2.9385203247443314        0.0163462591179159       -0.8687632233776916       -0.8194842575378962
+       -1.1701004326245150       -0.5426999191388504        0.6635592550574779        0.3116552922920345
+       -1.7268723827717811       -3.1140490733196216        1.6853131050339969        0.0918298459672651
+       -2.6625810863304635       -1.1089769572102193        0.7297894782460419        0.5593901217632046
-       -2.0140977296312617       -0.9548318251250395        0.6596081514629554       -0.9963138680841535
+        2.4182588469440076       -0.9689515559443794       -0.0793300677450013        0.9989733053171830
-        2.5081388851535209       -1.1391799480257712       -0.0751130110749070       -0.8354521971080898
+        3.1845941066849872       -2.3979226000827221       -0.4478478642169679        0.2899344186932475
-        2.7028677805838708       -1.8559584292892888       -0.3480562675884545       -0.8678253524624289
+        0.4997220466341166        0.5546019059342798        0.3390133253308255        0.9219570073558310
-        0.9338742891247012        0.4472930868289200        0.5696046316891348       -0.9704818863270434
-        0.8800279402925151        0.7230808863836177       -0.6746186957903874       -0.3320651923316272
+        1.5296980788707590       -0.3657187462795281       -0.0234286055404711        0.9769593393400061
-        1.8348692387543661        1.9326989655673370        1.1008714794599161       -0.1970026432733326
-        1.5196934808100555        2.0914889500947202       -0.7648722281963585       -0.1946060569702309
+        4.0690433653924654        2.9065452003976993       -0.2258758424995583        0.1283355164991325
+        0.2293018470955343        4.1385909046658726        0.6587366416751146        0.1235072004109040
