21
s                      x[A]                      y[A]                      z[A]                      q[e]
N 2.0565004583117461 1.3355355056614850 -0.1153369722863763 0.0707249461841811
O 1.6086256508716039 -0.1696452769574519 -0.3132949407212673 -0.3496602100029151
N 1.5042913517961822 0.0777162634857227 0.1350544958389580 0.9824851761690530
N 2.9871669799439511 -0.8499119198378178 -0.0628016952080812 0.1071394941056757
O 1.5500324744231277 -0.0328533714033890 0.3091482434394006 -0.8194842575378962
N 0.4422630198766355 -0.6512029000079818 0.1284340018130952 0.3116552922920345
N 0.6011742308001878 -2.0282001493889399 0.0244822502046220 0.0918298459672651
N 1.1759085231316930 -1.0563810161811085 0.0314942253647711 0.5593901217632046
O 0.8917633516117307 -0.8455876161075152 0.0564648444327162 -0.9963138680841535
N -0.6610901100887485 0.9616637144690476 0.1455769742962043 0.9989733053171830
O -0.6257931247123767 1.0561507563576764 0.1598348661660636 -0.8354521971080898
N -0.3955824938794925 1.7959409354402509 0.0577166715544463 0.2899344186932475
O -0.4318732145075281 1.4103356972280037 0.0491841895292640 -0.8678253524624289
N -0.5623383283179004 -0.3390588056428030 0.1316936342114566 0.9219570073558310
O -0.6568907211757624 -0.1560545147863648 0.3002832331148068 -0.9704818863270434
O -0.8277159997134769 -0.1626379652146298 -0.3525849758042522 -0.3320651923316272
N -0.5854050705972045 0.4136234294067995 0.0694310632996228 0.9769593393400061
O -1.5346448503810177 -0.4117704513571235 0.6152295419372055 -0.1970026432733326
O -1.5453992171850641 -0.5609237183085322 -0.4201555463464799 -0.1946060569702309
N -2.7698177467383092 0.1148174932846361 -0.0741546499740612 0.1283355164991325
N -1.8241402200434043 -1.7958008777962147 0.3520056351169835 0.1235072004109040
