21
s                      x[A]                      y[A]                      z[A]                      q[e]
N -1.7575974456158179 1.0560938519261236 -1.2911018277920925 0.0707249461841811
O -1.6599217464775358 0.1444327711981415 0.0161041628159737 -0.3496602100029151
N -1.4218452901255152 -0.0025696581921507 -0.4523579456827607 0.9824851761690530
N -3.0838887281040348 -0.4578399364954290 -0.0429162481373322 0.1071394941056757
O -1.4593976005028768 -0.1825902789131343 -0.4952344336210817 -0.8194842575378962
N -0.5985813983113096 -0.4852744445569569 0.1968093356395856 0.3116552922920345
N -1.0089219271648251 -1.4539440302707962 1.2683919334630891 0.0918298459672651
N -1.3783293628396274 -0.7090434633151950 0.4340683895972706 0.5593901217632046
O -1.0588198300013032 -0.5710084717393356 0.3555636202150445 -0.9963138680841535
N 0.8433255626320955 0.8394231312922888 -0.0106546779432819 0.9989733053171830
O 0.8309006108814658 0.9388842360955640 -0.0195398000657566 -0.8354521971080898
N 0.7846939460702409 1.7095745697377445 0.1047426492450311 0.2899344186932475
O 0.7381459469133815 1.3243975971311661 0.1136534994562485 -0.8678253524624289
N 0.4569289533962568 -0.4115438814757879 0.0368925294183669 0.9219570073558310
O 0.5670474433057802 -0.2517916705813601 -0.1446943238106075 -0.9704818863270434
O 0.8267834378487646 -0.3090449125814700 0.4750458074711431 -0.3320651923316272
N 0.6559193301026215 0.3154904174367876 0.0844022755270893 0.9769593393400061
O 1.2437778235950532 -0.6655453749869362 -0.6774231194489898 -0.1970026432733326
O 1.5137122926101290 -0.6911447286282142 0.2899497488193407 -0.1946060569702309
N 2.6602102362284534 -0.3313231291843955 -0.5084950076606990 0.1283355164991325
N 1.3547551411196277 -2.0608313202870434 -0.2608850702108692 0.1235072004109040
