21
s                      x[A]                      y[A]                      z[A]                      q[e]
N 0.0267488785253001 -0.0451306240120896 0.3785635728919823 0.0707249461841811
O 0.1033819111010390 0.2917375378616361 0.3150771679949149 -0.3496602100029151
N 0.3748607755266251 -0.1815868737333330 0.3119010109878042 0.9824851761690530
N 0.0333022385380154 -0.0112803567578622 -0.1886704912493058 0.1071394941056757
O 0.2569828151313884 -0.3287249054149615 0.3224451659224604 -0.8194842575378962
N 0.1002509289764121 0.1265342386173394 0.2896974181527039 0.3116552922920345
N 0.0292272238139338 -0.0160830617736140 0.2433791152191827 0.0918298459672651
N 0.0897902443336012 0.0398495043579279 -0.5509854302212557 0.5593901217632046
O 0.0480549411943660 0.0582868246787739 -0.1971193129100177 -0.9963138680841535
N 0.2243242601551991 0.0849591273933184 -0.4264968442443003 0.9989733053171830
O 0.2012698425330756 0.0988091481397665 -0.3295303193851897 -0.8354521971080898
N 0.0332749870979973 0.0070154098966978 0.4286889177856110 0.2899344186932475
O 0.0355578922226624 -0.0031632807666728 0.0407474243823740 -0.8678253524624289
N -0.0005677685476640 0.0795232321582512 -0.3507560153196092 0.9219570073558310
O 0.1217829918515781 0.2404464901273979 -0.1782607039469944 -0.9704818863270434
O 0.2595661266025271 -0.4193712457246267 -0.2000532287017696 -0.3320651923316272
N 0.0904802921580886 0.0139969621839501 0.3961374016933760 0.9769593393400061
O 0.1993330767069638 -0.5131293239501077 -0.0951992996188406 -0.1970026432733326
O 0.2303059486697781 0.4908265623233101 -0.0741405638939663 -0.1946060569702309
N 0.0219145935958812 -0.0011204363995143 0.1841030343104479 0.1283355164991325
N 0.0376143472202239 0.0036295975398549 -0.1489755774724114 0.1235072004109040
