21
s                      x[A]                      y[A]                      z[A]                      q[e]
N       -1.9600284870893221        1.4488159752885135        0.0710828360228005        0.0707249461841811
O       -1.6171698900190685       -0.0751620815265578        0.3335473975689026       -0.3496602100029151
N       -1.5019278056018115        0.1563366547234016       -0.1489373678645257        0.9824851761690530
N       -3.0491978280982530       -0.6492483969396143        0.1210078168544444        0.1071394941056757
O       -1.5611492096219082        0.0477143690880845       -0.2921486368060100       -0.8194842575378962
N       -0.4999520016656350       -0.6530865089741000       -0.1292420889759442        0.3116552922920345
N       -0.7653068762662264       -2.0118611261444390        0.0057255721695673        0.0918298459672651
N       -1.2621167858693996       -0.9979534272337669       -0.0055907776501603        0.5593901217632046
O       -0.9630205263326139       -0.8103783979051776       -0.0395105786439271       -0.9963138680841535
N        0.7456842603855049        0.8981386061483507        0.0428457929193599        0.9989733053171830
O        0.7194205286586972        0.9965458070324812        0.0400188768592148       -0.8354521971080898
N        0.5187044529731458        1.7270499547760561       -0.1026816783845884        0.2899344186932475
O        0.5274524931627652        1.3402206449107510       -0.0850721822381980       -0.8678253524624289
N        0.5177184129061494       -0.4245609057724310       -0.1292854981933570        0.9219570073558310
O        0.6281221766812370       -0.2519574108852293       -0.2993309625551918       -0.9704818863270434
O        0.7949184002511209       -0.2658343981269076        0.3545855924404800       -0.3320651923316272
N        0.6039017065207710        0.3241906639688791       -0.0747047991607468        0.9769593393400061
O        1.5346757925195633       -0.4853517932646776       -0.5591096080539922       -0.1970026432733326
O        1.5292024539224158       -0.5371904318440273        0.3957003005656005       -0.1946060569702309
N        2.7786018270163666       -0.0151734329656756        0.0474425180553866        0.1283355164991325
N        1.7171087734920301       -1.8891347311113660       -0.2094101624625297        0.1235072004109040

        RMSE         8.357546088E+00 kcal/mol

Coordinates in bohr
s                   x[bohr]                   y[bohr]                   z[bohr]                      q[e]
+       -3.7039170386942732        2.7378653994833670        0.1343270923039209        0.0707249461841811
-       -3.0560081904727965       -0.1420357491045275        0.6303132312644242       -0.3496602100029151
+       -2.8382322127972892        0.2954334607974920       -0.2814508351105174        0.9824851761690530
+       -5.7621487974465362       -1.2269016576084035        0.2286716328944597        0.1071394941056757
-       -2.9501444471603593        0.0901670898254907       -0.5520809114892076       -0.8194842575378962
+       -0.9447723590224861       -1.2341546381924051       -0.2442321520465869        0.3116552922920345
+       -1.4462203980728094       -3.8018665308681534        0.0108197633120256        0.0918298459672651
+       -2.3850550636362677       -1.8858586634338270       -0.0105650385871336        0.5593901217632046
-       -1.8198450479628889       -1.5313932300280735       -0.0746641726953852       -0.9963138680841535
+        1.4091390281931866        1.6972359883208172        0.0809668142456704        0.9989733053171830
-        1.3595077681970222        1.8831986467647353        0.0756247171123379       -0.8354521971080898
+        0.9802093561746651        3.2636514195110737       -0.1940402502492151        0.2899344186932475
-        0.9967407562675439        2.5326499665657853       -0.1607631253252322       -0.8678253524624289
+        0.9783460104993137       -0.8023038354862021       -0.2443141835788176        0.9219570073558310
-        1.1869788872539715       -0.4761305018525304       -0.5656535400989848       -0.9704818863270434
-        1.5021780685616859       -0.5023542071857748        0.6700696577457168       -0.3320651923316272
+        1.1412088320208671        0.6126315673315106       -0.1411716106711433        0.9769593393400061
-        2.9001169392319164       -0.9171819637700680       -1.0565640333341157       -0.1970026432733326
-        2.8897738282914101       -1.0151427934016310        0.7477651958303303       -0.1946060569702309
+        5.2507964647576806       -0.0286736326881202        0.0896533658267688        0.1283355164991325
+        3.2448653095207374       -3.5699472558908978       -0.3957278549418106        0.1235072004109040
