25
s                      x[A]                      y[A]                      z[A]                      q[e]
N       -1.7590653202715085        0.8351302263173190       -1.4020444581883436        0.1158659338886357
O       -1.8766889964150058        0.3304500717505168        0.2357479161649392       -0.2341991647481463
N       -3.3793011419604415       -0.1754109775411787        0.0416937687060744        0.0569852111266852
N       -2.1685279620321691       -0.2043422190444526        0.0778644601137572        0.3189271149812888
O       -1.8626528302235614       -0.3326712526586997       -0.1878808618634833       -0.2877498234141676
N       -1.4113742589197986       -0.3447507405531544        0.7129955735203670        0.5692545008206258
O       -0.9813034065330266       -0.3607759446636594       -0.0718439287714512       -0.2058946535748549
O       -1.1137109162458732       -0.3694309186112988        0.6343518844342966       -0.9992971180892700
N       -0.6576463730037355       -0.3803842060818913        0.3543193391441673        0.6691943173322236
N       -1.0703125748450277       -1.1103578130687686        1.6293436253754348        0.0628076875181509
N        1.4034478921237479       -1.3248437835220674       -0.2640394873876631        0.7576134719858190
O        1.1834762358996311       -1.0508818281599126       -0.2696791067194450       -0.9235083265987739
N        1.0365015169739520       -0.6597939096048181       -0.1391468529819005        0.9955526175656415
O        1.3212967806695275       -1.1646727703784994       -0.1859481920408482       -0.9936641819349231
O        0.4053157365080924        0.1334508863455980        0.2040335895478469       -0.9934394819660318
N        0.5859225971304016       -0.1997772737907312       -0.0299110468196754        0.8475065253219278
N        0.2056135851535065        0.3418423169053287        0.1840953240573914        0.9207393412409772
O        0.4120862727837372        0.3483070249277085       -0.1632697791660253       -0.6738758902636315
N        2.3732965760990297        1.3558892516525329       -0.2717160311662703        0.1207489421105395
N        0.6344640710301263        0.9365683285670108        0.0669628763566129        0.4308753055723465
O        1.0551873476139326        0.8412401313642023        0.2421917641226764       -0.7095764258838037
N        1.2252815082348836        0.7761408089117836       -0.0193454246514449        0.9977500474782615
O        1.0579538536336359        0.9277201065668841       -0.0920243762199019       -0.9963537733476465
O        0.6397412705831411        2.2240352954695934        0.6840192452239102       -0.1586318904925156
N        0.6316069028919284        2.1984679322992782        0.5102456221681962        0.3123697133706422

        RMSE         6.108463696E-01 kcal/mol

Coordinates in bohr
s                   x[bohr]                   y[bohr]                   z[bohr]                      q[e]
+       -3.3241516921039116        1.5781674068313465       -2.6494800416918785        0.1158659338886357
-       -3.5464282258846689        0.6244601337463654        0.4454989961991274       -0.2341991647481463
+       -6.3859536537521189       -0.3314787069516618        0.0787898039926649        0.0569852111266852
+       -4.0979239436380110       -0.3861508298623282        0.1471425045216360        0.3189271149812888
-       -3.5199037159314286       -0.6286575573379268       -0.3550433731369578       -0.2877498234141676
+       -2.6671108098794245       -0.6514844811942294        1.3473663626172252        0.5692545008206258
-       -1.8543946843262245       -0.6817677280676450       -0.1357653491549426       -0.2058946535748549
-       -2.1046086146374017       -0.6981232584516560        1.1987513287488953       -0.9992971180892700
+       -1.2427715323777428       -0.7188219719444845        0.6695665119356855        0.6691943173322236
+       -2.0225976350906860       -2.0982721679622713        3.0790132162201314        0.0628076875181509
+        2.6521321474649659       -2.5035919098720463       -0.4989623174689596        0.7576134719858190
-        2.2364459618380246       -1.9858788454426708       -0.5096196534578650       -0.9235083265987739
+        1.9587039957023475       -1.2468297883981854       -0.2629494433551369        0.9955526175656415
-        2.4968890459145281       -2.2009125617935963       -0.3513911564812403       -0.9936641819349231
-        0.7659357363385235        0.2521856263927799        0.3855676046395056       -0.9934394819660318
+        1.1072332392934219       -0.3775243335550862       -0.0565236866149328        0.8475065253219278
+        0.3885533636136291        0.6459883570430339        0.3478897434458775        0.9207393412409772
-        0.7787301956219693        0.6582048846863818       -0.3085351671877683       -0.6738758902636315
+        4.4848805433139489        2.5622593420752553       -0.5134688828006144        0.1207489421105395
+        1.1989633306899607        1.7698576387694513        0.1265414968868938        0.4308753055723465
-        1.9940150980385993        1.5897134540225084        0.4576761040333416       -0.7095764258838037
+        2.3154464771518306        1.4666935636345695       -0.0365575543719113        0.9977500474782615
-        1.9992430367402689        1.7531369224919613       -0.1739008679217087       -0.9963537733476465
-        1.2089357925545474        4.2028176017892109        1.2926090380155679       -0.1586318904925156
+        1.1935640654143826        4.1545022876471975        0.9642244826117244        0.3123697133706422
