21
s                      x[A]                      y[A]                      z[A]                      q[e]
N        1.7447112292195959        0.9887962796033050       -1.3572523509720076        0.0707249461841811
O        1.5635653137513150       -0.2561469012942740       -0.3998974156653607       -0.3496602100029151
N        1.4806902716336456        0.2445690444409376       -0.1948132962109893        0.9824851761690530
N        3.0814667500175870       -0.4706204788173425       -0.0567341349507460        0.1071394941056757
O        1.5690617486820493        0.2656791257068181       -0.0292993852349739       -0.8194842575378962
N        0.5480854939461152       -0.4926924743137919        0.4448841977519772        0.3116552922920345
N        1.0125149464762764       -1.4286319737059836        1.2960894502360270        0.0918298459672651
N        1.3616132362125024       -0.7124211773479913        0.5131287294016671        0.5593901217632046
O        1.0374664247810783       -0.5742537452574921        0.4712383524682116       -0.9963138680841535
N       -0.8775944822928796        0.8351568245630764        0.1544567362850642        0.9989733053171830
O       -0.8685069178506436        0.9344767476802897        0.1749120300115062       -0.8354521971080898
N       -0.7870287528844279        1.7096371378723840        0.1177236191281810        0.2899344186932475
O       -0.7354932823522087        1.3258553454484034        0.1080292705851128       -0.8678253524624289
N       -0.4899396387446371       -0.4158590226043716        0.1910852338906945        0.9219570073558310
O       -0.6608626614235734       -0.2640364222272529        0.3276951746989881       -0.9704818863270434
O       -0.6622514512293918       -0.2848042723527093       -0.3469438936019213       -0.3320651923316272
N       -0.6628037331639945        0.3152888296620865        0.1101384514402353        0.9769593393400061
O       -1.5115905381766115       -0.7296422307844425        0.3128116182250698       -0.1970026432733326
O       -1.2577450967678598       -0.6289567199694203       -0.6541866632879647       -0.1946060569702309
N       -2.6625127113349532       -0.3333729642683042       -0.5056955738703104        0.1283355164991325
N       -1.3513330103428249       -2.0602776143695767       -0.2705616730052468        0.1235072004109040

        RMSE         6.625318175E-01 kcal/mol

Coordinates in bohr
s                   x[bohr]                   y[bohr]                   z[bohr]                      q[e]
+        3.2970263912359115        1.8685541623218689       -2.5648352264708603        0.0707249461841811
-        2.9547102222555259       -0.4840474913308571       -0.7556965938859006       -0.3496602100029151
+        2.7980990900173484        0.4621685127582964       -0.3681437754364610        0.9824851761690530
+        5.8231282222378606       -0.8893438139966046       -0.1072119770216748        0.1071394941056757
-        2.9650969789410135        0.5020607848369687       -0.0553678137383835       -0.8194842575378962
+        1.0357314768944321       -0.9310538405272325        0.8407092912952582        0.3116552922920345
+        1.9133759467727540       -2.6997231643765782        2.4492540950412938        0.0918298459672651
+        2.5730761052399469       -1.3462809111639238        0.9696727656733107        0.5593901217632046
-        1.9605274071941325       -1.0851823050550871        0.8905114259768838       -0.9963138680841535
+       -1.6584132207464919        1.5782176702312454        0.2918809298108359        0.9989733053171830
-       -1.6412402128032171        1.7659051237243062        0.3305358327696070       -0.8354521971080898
+       -1.4872687958121964        3.2307459644903909        0.2224653986499704        0.2899344186932475
-       -1.3898808707596997        2.5055034848717619        0.2041457349388406       -0.8678253524624289
+       -0.9258517352331112       -0.7858596595228385        0.3610987586724649        0.9219570073558310
-       -1.2488494366317180       -0.4989565251552537        0.6192541328151449       -0.9704818863270434
-       -1.2514738690105425       -0.5382020741069213       -0.6556289398076117       -0.3320651923316272
+       -1.2525175306109797        0.5958095384774679        0.2081315091040810        0.9769593393400061
-       -2.8564921309872013       -1.3788239857506910        0.5911282873066545       -0.1970026432733326
-       -2.3767937685287088       -1.1885559455084769       -1.2362336285413504       -0.1946060569702309
+       -5.0314198299732178       -0.6299836000991333       -0.9556261374711146        0.1283355164991325
+       -2.5536492938384097       -3.8933604335701175       -0.5112874620255928        0.1235072004109040
