21
s                      x[A]                      y[A]                      z[A]                      q[e]
N -2.1357344024940819 0.7394788535288367 1.1991306743431187 0.0707249461841811
O -1.5691936062254594 -0.4491791935924931 0.1970837510715797 -0.3496602100029151
N -1.5200658968874012 0.0703908995819668 0.0319243934021878 0.9824851761690530
N -2.8887812026523161 -0.8729299750260527 -0.5435060463285991 0.1071394941056757
O -1.5645681100498907 0.0881233329533940 -0.1507094535257932 -0.8194842575378962
N -0.3881525658309968 -0.4907530421839509 -0.3246637294887657 0.3116552922920345
N -0.4093875685938797 -1.4121935598428343 -1.3138936403837609 0.0918298459672651
N -1.0638792150254384 -0.8095332099469283 -0.6380150138238806 0.5593901217632046
O -0.7893640560490474 -0.6259146512162687 -0.5082388576428973 -0.9963138680841535
N 0.7273691956638155 0.4810413328466185 -0.8231497661313502 0.9989733053171830
O 0.7025110391292522 0.5366827993747219 -0.9047067968107532 -0.8354521971080898
N 0.4876859303577789 1.8894513259466488 0.2503935863319707 0.2899344186932475
O 0.4971415187739950 1.5022201270094284 0.2513629831346935 -0.8678253524624289
N 0.5772663454404463 -0.2484255031194691 0.1337761956653872 0.9219570073558310
O 0.7424962401696917 -0.0657486826438387 0.0325076480146151 -0.9704818863270434
O 0.6154057561681769 -0.1044159520387080 0.6942658787663623 -0.3320651923316272
N 0.6008265741654234 0.4990782158879648 0.2419180668108540 0.9769593393400061
O 1.6417178819145239 -0.3780730722198630 0.2185241101730257 -0.1970026432733326
O 1.1899235945653435 -0.3491153348692272 1.1155771342621403 -0.1946060569702309
N 2.7226833544340345 0.1440741416679274 0.1226211242584606 0.1283355164991325
N 1.6680408450774489 -1.2907730055015665 1.3678045184238614 0.1235072004109040
