24
s                      x[A]                      y[A]                      z[A]                      q[e]
N -1.2953339207645489 -0.7167402350851880 0.3209778564999348 0.6959175615854226
O -1.3408372748777895 -0.7387817264841727 0.6248022438835693 -0.4294665048044459
N -1.4659250765556986 -1.5006343388662855 -0.7111934868372896 0.7289443612696791
O -1.3987658434554824 -1.3907916551212482 -0.5483337046034813 -0.8899528116456963
N -2.3136622299309844 -0.5936513526830735 0.3899112127998453 0.4821174903544280
O -2.0877494823923355 -0.6161357319860928 0.2554500228265307 -0.6035297564939646
N -0.8197521442941894 -1.8633821005768898 1.1490695075181403 0.0604057803354635
N -0.9262760003266765 1.6444995038536963 0.1704212341012907 0.6991174418445399
O -0.5223988795116884 1.6378898570192355 0.0295085270578304 -0.4131324281244263
O -1.0227717578110178 1.4505437161598613 0.1926555411428619 -0.9286014603942530
O 0.0058218830620564 0.1268418971740796 -0.2776485539162494 -0.1057946580878595
N -0.6802989360385563 0.0852222206935935 0.1003577801826082 0.9961038253671308
O -0.6193613540238500 -0.0691124572336538 0.3603105563201153 -0.3737552305035935
N 0.4375718837341432 -0.0596197733258532 -0.5474355369600868 0.9714181100989372
O 0.8271621111995260 -0.1932258936719951 -0.4501669424966634 -0.9973398242463560
N 0.9984484550976359 0.0510505925500900 -0.7261894868672465 0.7637225416907655
O 0.6712483181161044 -0.1368220222815540 -0.9187815837169930 -0.9974375214017446
O 2.1450689860323267 -0.3847465457939591 0.0782627685442254 -0.4871145088925188
N 1.3312531344290348 -0.3557291362558883 0.1360158588125863 0.4662300369825688
N 2.3113346638167385 -0.3384089589049702 0.0481170289923555 0.6223673236702755
N 2.1901589180144589 0.7616231420750050 0.5930018157996357 0.9509229066582735
O 2.2093728923803875 0.7156120266916705 0.4886085018395573 -0.9922381659518612
O 1.7243139573186910 -0.7242093023196867 0.7252142419347873 -0.6086911331096487
N 1.7156317306530418 -0.9502751564929424 0.9942247202624227 0.3897866237988844
