21
s                      x[A]                      y[A]                      z[A]                      q[e]
N        2.0153490210225300        1.4894416477912422       -0.5770942380532139        0.0707249461841811
O        1.6711118918112136       -0.0366114937759150       -0.3478573801072510       -0.3496602100029151
N        1.5540809233643869        0.3162328115345058        0.0532709656616822        0.9824851761690530
N        3.1074349568132140       -0.5135442324262934        0.0464652010562163        0.1071394941056757
O        1.6139987215199052        0.2521591593192098        0.2206072852989434       -0.8194842575378962
N        0.6443317559620093       -0.3253471889867024       -0.0082778696985629        0.3116552922920345
N        0.8466898672404113       -1.8165649517086728        0.4968052749072239        0.0918298459672651
N        1.4025382273439531       -0.6711986864665805        0.1343367347612311        0.5593901217632046
O        1.0654940701306166       -0.5704402515223563        0.0884991623373848       -0.9963138680841535
N       -1.2900411356595480       -0.4640955997791806       -0.1505049880674133        0.9989733053171830
O       -1.3383153601194075       -0.5499944927626842       -0.1742043872436814       -0.8354521971080898
N       -1.7582024176007862       -1.2089532144448019       -0.1462913525617704        0.2899344186932475
O       -1.4889184813324874       -0.9338329819968247       -0.1010597647902228       -0.8678253524624289
N       -0.2288039954569696        0.2938177788195974       -0.0155584614921375        0.9219570073558310
O       -0.4193448310091924        0.2626201001515996       -0.1985721950170293       -0.9704818863270434
O       -0.5625153469133264        0.3473806054899394        0.4555532560535963       -0.3320651923316272
N       -0.8213413746225463       -0.1749847005985666       -0.0237006548582611        0.9769593393400061
O       -0.7633427864902373        1.1311057482207285       -0.4612842461109630       -0.1970026432733326
O       -0.9061800821442049        1.0371443340188176        0.5288782297977084       -0.1946060569702309
N       -2.0950039092854822        1.5993625046359921       -0.0643366181862193        0.1283355164991325
N       -0.0152976772160605        2.1838720868555459        0.2220808831100693        0.1235072004109040

        RMSE         1.548772148E+00 kcal/mol

Coordinates in bohr
s                   x[bohr]                   y[bohr]                   z[bohr]                      q[e]
+        3.8084576969421331        2.8146367941760673       -1.0905500585003374        0.0707249461841811
-        3.1579438005189058       -0.0691856962803832       -0.6573551791219865       -0.3496602100029151
+        2.9367873219573069        0.5975934056837373        0.1006675355392476        0.9824851761690530
+        5.8722010210508486       -0.9704579525941538        0.0878065043605825        0.1071394941056757
-        3.0500155505116986        0.4765117511389935        0.4168873504957421       -0.8194842575378962
+        1.2176105527035268       -0.6148170828724369       -0.0156429066325100        0.3116552922920345
+        1.6000119622846254       -3.4328102478349170        0.9388259072574394        0.0918298459672651
+        2.6504131301651790       -1.2683816931888749        0.2538596372869972        0.5593901217632046
-        2.0134919808462217       -1.0779758463145315        0.1672391791500896       -0.9963138680841535
+       -2.4378244369711344       -0.8770135796127378       -0.2844132079627096        0.9989733053171830
-       -2.5290495001191462       -1.0393389618315707       -0.3291985817437571       -0.8354521971080898
+       -3.3225210423833200       -2.2845904737925622       -0.2764505908645395        0.2899344186932475
-       -2.8136481528509951       -1.7646885828935894       -0.1909752777567072       -0.8678253524624289
+       -0.4323768878241696        0.5552351327593829       -0.0294012311536219        0.9219570073558310
-       -0.7924468827337688        0.4962800643268291       -0.3752470647131870       -0.9704818863270434
-       -1.0629999470330864        0.6564542056716975        0.8608708895018603       -0.3320651923316272
+       -1.5521102535436710       -0.3306731602765273       -0.0447877466761150        0.9769593393400061
-       -1.4425088063103784        2.1374800830682350       -0.8717008911380054       -0.1970026432733326
-       -1.7124321755974248        1.9599187438659198        0.9994350080346183       -0.1946060569702309
+       -3.9589836203130573        3.0223571090883010       -0.1215785882101038        0.1283355164991325
+       -0.0289084202940106        4.1269201371890327        0.4196720467778441        0.1235072004109040
