21
s                      x[A]                      y[A]                      z[A]                      q[e]
N 1.5405249365789393 0.5772222167546270 0.1362493866091701 0.0707249461841811
O 0.5489119110488008 -0.3480487552660535 0.2965701390430298 -0.3496602100029151
N 0.9106373561731732 0.0530249297985424 0.3825579442435132 0.9824851761690530
N -0.6118658569106132 0.0463345149688537 0.1864139394818288 0.1071394941056757
O 0.8246539276201604 0.2203707735432718 0.3998564386690213 -0.8194842575378962
N 0.1148047035069036 0.0083668010262350 -0.2753345201367293 0.3116552922920345
N 0.9157687162782441 0.4969041967627431 -0.0329636990382956 0.0918298459672651
N 0.1503630212930445 0.1342485922703149 -0.2654725050864249 0.5593901217632046
O 0.4132633349752090 0.0883985445693619 -0.4992101943053632 -0.9963138680841535
N -0.4231220759897616 0.1503017241663475 -0.3539513434274105 0.9989733053171830
O -0.3669939120800388 0.1740019014177190 -0.4349366068935823 -0.8354521971080898
N 0.0419398869582983 0.1460870050990425 -1.1007479780746736 0.2899344186932475
O -0.0876792046749283 0.1008710511255108 -0.7382493080672459 -0.8678253524624289
N -0.7390130310963802 0.0154487559178790 0.3702113161702327 0.9219570073558310
O -0.9304462325037290 0.1984354207519111 0.3448668548861185 -0.9704818863270434
O -0.8345531965023587 -0.4557209486901040 0.6552834921453096 -0.3320651923316272
N -0.4780874797073000 0.0235431791605003 0.1940039399707442 0.9769593393400061
O 1.2318081867549406 0.4616417080709130 0.0362218130348018 -0.1970026432733326
O 1.0855115927419308 -0.5285427701624239 -0.0520106907952445 -0.1946060569702309
N -0.0808099344242301 0.0647062379503173 0.5554799913239077 0.1283355164991325
N -0.4678397492734807 -0.2223418694288056 0.8922977202223336 0.1235072004109040
