21
s                      x[A]                      y[A]                      z[A]                      q[e]
N -2.0593361456546844 1.4857478301609963 -1.0578894500849656 0.0690680479201058
O -1.9428072601724826 0.0593952487694638 0.2618133180048676 -0.3117950550350966
N -2.0372147243249237 -0.1854456669003465 -0.0167027832102687 0.5776243102962968
N -3.3837663586432818 -0.3281923791545439 -0.0043323543552696 0.0604184539076988
O -1.8696678060714542 -0.2832219742485281 -0.3122526870284867 -0.3968494342195521
O -0.6174912463064193 -0.9196322496024668 0.1108105291934396 -0.9828651838991298
N -0.3981340398817363 -0.9151681341777871 0.0757155854998219 0.7759263489545838
N -1.1242287005062979 -1.0868867451423547 0.5690156054075953 0.9970342621901004
O -1.1027185393855110 -1.2284400809021190 0.3275713770878329 -0.3970377457969525
O -1.1943970726568858 -0.9727365179396241 0.8081899999686178 -0.3893757401670396
N 0.6443358924656033 1.7603587012149278 0.3037349070137749 0.1691966627363242
O 0.6060325402325830 1.3218239142676398 0.2156568022309755 -0.6800109224217911
O 0.7491113859404042 -0.4162359649028667 0.3207500910532140 -0.9821368279659007
N 0.6701121589711156 -0.5781711852158753 0.2009342083045687 0.8921713087406896
O 0.8162944384757070 -0.3039402768332906 -0.3679245527185425 -0.3335771210350215
N 0.6506770465815226 0.2543068330034645 0.1079991133808799 0.9988617281482304
N 2.9251539687209447 -0.0418600928080568 -0.4056970900381646 0.0655379221577991
N 1.6536347824838644 -0.4251105810992668 -0.2096304182081268 0.9908754307264420
O 1.6055353426148640 -0.5184810581298612 0.1523695201764072 -0.6595771554465193
O 1.5560781621173772 -0.4699738076158322 -0.5663489172668146 -0.5578053818499882
N 1.5247865578943816 -2.1203585874842190 -0.2536988040408630 0.0943160920587207
