30
s                      x[A]                      y[A]                      z[A]                      q[e]
N 2.0765103003785632 0.4770308390650958 1.3282034083479113 0.2137068255539760
N 1.6809577379270686 0.7284334513159730 0.6197764582644598 0.4524136045707061
O 1.6914029299520204 1.2667173913259544 0.8018684021886018 -0.5303393512711568
N 1.5260000257830222 1.7774422312887206 1.1504666108784720 0.2065219334641430
N 3.4289501037208785 0.7629565837127346 0.6791096587063316 0.0640972179527254
N 1.7007687741865756 -0.1473043307471284 1.6025281195624681 0.2729192555687945
O 1.8827382530207630 0.2152469281124812 1.2839389853637340 -0.5760168259183410
O 2.3759171376560335 -0.0730408131618550 -1.3695666554844654 -0.7855321009151053
O 1.9134730986002875 -0.0721467339990737 -1.6979293075057511 -0.7445427033607991
N 2.1505436557642339 -0.0995926432529595 -1.5674944484886260 0.9977538426035523
N 1.7056780437526602 0.4194176119588153 -0.2919555707436577 0.2084365764815679
N 1.1536265274702584 0.2889229020158725 -0.8340116528547943 0.3300899125146088
N -0.1628317225480377 1.0360426383176293 -0.6828437384963797 0.6266498413516267
O -0.0420378489813893 0.7996026904829058 -0.2614776645712793 -0.5811225412727979
N -0.3711274740517824 0.2586002701034859 -1.8618229266292541 0.5003074335780895
O -0.3148342830098128 0.3581983831376643 -1.7098450767316569 -0.5967490130385100
N -0.3557547997109107 1.4586581989302865 -0.5984202385045599 0.9708061175491041
O -0.3467718109367521 1.5211000840089504 -0.2823193920456618 -0.1568654630532827
O -0.3466324302608115 1.4262036229175701 -0.7732991219954527 -0.7813807259506527
N -0.5772174529431306 -0.0476628947084991 0.4607326494858838 0.1400529194232831
N -0.6857107854712261 -0.5687756841310740 0.0311017512045372 0.1778327620465852
N -0.7907427951848538 -1.0851881944856794 0.1996580708018399 0.7120624373414439
O -0.7311205252592383 -1.2370789512413034 0.1928227348351580 -0.9970019554920370
N -1.8472297191978624 -0.2044233597783716 -0.1381431260319817 0.9931708722557875
N -2.5909846658765807 -0.1430549543285714 -0.3659602085435020 0.8506195801821621
O -2.3006960299113626 -0.0862455015972453 -0.3478519001206588 -0.8089940633040810
O -2.4302740736638859 -0.1794364287424688 -0.2545269879566264 -0.9883399134133223
N -0.9869620346425634 0.3468015294480546 1.9050792303255815 0.2529889584625400
N -1.0511077538034517 0.0208990894943131 1.1317646242000481 0.5419198115726583
O -0.9953064526364448 0.2194148810940069 1.5057013928857119 -0.9654652454832693
