21
s                      x[A]                      y[A]                      z[A]                      q[e]
N        2.0556563048108116        1.5417971399635135       -0.3208371966126509        0.0707249461841811
O        1.6844895757500766       -0.0014141986823092       -0.3237696209631461       -0.3496602100029151
N        1.5606527682423268        0.2985293081220751        0.1169982609592966        0.9824851761690530
N        3.1039210945222289       -0.5482512878261753        0.0223797867214920        0.1071394941056757
O        1.6154871714823498        0.2117836421359388        0.2758284236100620       -0.8194842575378962
N        0.6373570562590857       -0.3371857554554368       -0.0668628693057204        0.3116552922920345
N        0.8276279721301242       -1.8650948512268584        0.2622643155514622        0.0918298459672651
N        1.3975777569272967       -0.6891338559519662        0.0470893850649348        0.5593901217632046
O        1.0597305301141358       -0.5861044022719917        0.0148760337174279       -0.9963138680841535
N       -1.3017276844515879       -0.4578700584767808       -0.1181147109409434        0.9989733053171830
O       -1.3517277552032807       -0.5443749733036425       -0.1380808042018098       -0.8354521971080898
N       -1.7752387747526734       -1.1985226538908162       -0.0792666030995615        0.2899344186932475
O       -1.5019162141541411       -0.9255093757399491       -0.0513011716933561       -0.8678253524624289
N       -0.2293443910435993        0.2927383502975154       -0.0452551565653949        0.9219570073558310
O       -0.4284582883346206        0.2592922838668515       -0.2188392399339742       -0.9704818863270434
O       -0.5408235468727027        0.3569051809856260        0.4395422473963100       -0.3320651923316272
N       -0.8254688229467457       -0.1708651593330201       -0.0179976155605888        0.9769593393400061
O       -0.7846696434029010        1.1184239194218264       -0.4876330194550296       -0.1970026432733326
O       -0.8729666078708779        1.0570097140539503        0.5114108538765654       -0.1946060569702309
N       -2.0899819787150538        1.6078301108205550       -0.0331526409708357        0.1283355164991325
N        0.0033834279322853        2.1894830683386393        0.1191796339693258        0.1235072004109040

        RMSE         1.581223343E+00 kcal/mol

Coordinates in bohr
s                   x[bohr]                   y[bohr]                   z[bohr]                      q[e]
+        3.8846274241630914        2.9135743355452113       -0.6062944324575763        0.0707249461841811
-        3.1832239593562930       -0.0026724481965477       -0.6118359113636357       -0.3496602100029151
+        2.9492063089156062        0.5641386327731351        0.2210946703679154        0.9824851761690530
+        5.8655607836783128       -1.0360447819210228        0.0422916676497776        0.1071394941056757
-        3.0528283132921668        0.4002130814888949        0.5212401782397830       -0.8194842575378962
+        1.2044302804576890       -0.6371887312163733       -0.1263525109500921        0.3116552922920345
+        1.5639902010939790       -3.5245184668202754        0.4956077288729138        0.0918298459672651
+        2.6410391996242626       -1.3022742515299222        0.0889860411889510        0.5593901217632046
-        2.0026004687019561       -1.1075768012192271        0.0281116295590150       -0.9963138680841535
+       -2.4599088135398897       -0.8652490115684762       -0.2232044550660003        0.9989733053171830
-       -2.5543952535141035       -1.0287196090973010       -0.2609349031243870       -0.8354521971080898
+       -3.3547150915758719       -2.2648795710105256       -0.1497921707535378        0.2899344186932475
-       -2.8382103081357948       -1.7489592466919472       -0.0969451644155326       -0.8678253524624289
+       -0.4333980874823059        0.5531953084806402       -0.0855198516733111        0.9219570073558310
-       -0.8096688211348755        0.4899914029528166       -0.4135462289785651       -0.9704818863270434
-       -1.0220083857881126        0.6744530448197920        0.8306144681472550       -0.3320651923316272
+       -1.5599100004733877       -0.3228883555221225       -0.0340105643207910        0.9769593393400061
-       -1.4828107249921398        2.1135148998683664       -0.9214928565000549       -0.1970026432733326
-       -1.6496678055458973        1.9974588715104582        0.9664264514132413       -0.1946060569702309
+       -3.9494935469138834        3.0383585657153578       -0.0626494117705118        0.1283355164991325
+        0.0063937521572433        4.1375233554870938        0.2252168679343362        0.1235072004109040
