30
s                      x[A]                      y[A]                      z[A]                      q[e]
N -3.1460091549039473 0.9463109538876882 -0.3280506285498789 0.2137068255539760
N -2.4638980001373287 0.6594349154894982 0.1101293991968833 0.4524136045707061
O -2.7177429859397448 0.8064599933543006 0.5433667245327576 -0.5303393512711568
N -2.8702366417673661 1.2207590874921064 1.0685286747034670 0.2065219334641430
N -3.8649441716530926 -0.3806480532780862 -0.1045042004871413 0.0640972179527254
N -2.8884618310107015 1.3539483399105565 -0.9448403982904385 0.2729192555687945
O -2.9133941749099157 1.0239050339009714 -0.5827909008627263 -0.5760168259183410
O -1.6792461346945011 -1.4636232420309951 -0.0207222421571432 -0.7855321009151053
O -1.0902763494756444 -1.4139167978196554 -0.0082623911877809 -0.7445427033607991
N -1.4014558774018184 -1.4724702285046254 -0.0232293731465061 0.9977538426035523
N -1.8779978013714471 -0.0964427566785236 -0.0312249448025785 0.2084365764815679
N -1.1151158389893836 -0.1827189605695913 0.0281824189191763 0.3300899125146088
N -0.3224678912224863 1.0871520844292684 0.4687626348963114 0.6266498413516267
O -0.6384428435114031 1.1488879488788570 0.0132840723070048 -0.5811225412727979
N -0.2902340147385301 1.5386806006679534 0.8938734867385613 0.5003074335780895
O -0.2402130889722504 1.4129816794567329 0.8229576163682386 -0.5967490130385100
N -0.2492878774155074 1.3723111213300645 -0.7942094940899910 0.9708061175491041
O -0.1292452809007577 1.1051558845098264 -1.0361970527104885 -0.1568654630532827
O -0.2280472914900832 1.3638633887429916 -0.6355032643854863 -0.7813807259506527
N 0.7370546316941256 -0.2259955682175391 -0.3123813397100960 0.1400529194232831
N 0.8534516868982229 -0.1703897191693585 0.3531024831871020 0.1778327620465852
N 1.2211435339459706 -0.4408608494000533 0.6970322733656366 0.7120624373414439
O 1.2280364931942029 -0.5259231917165011 0.8922189192847698 -0.9970019554920370
N 1.7455774228240495 0.6957147383253530 0.0270569546733283 0.9931708722557875
N 2.3231111609639110 1.2279499508068441 0.0111485542020061 0.8506195801821621
O 2.0623667828129157 1.1114993560140221 0.0176430042094511 -0.8089940633040810
O 2.2385425265491228 1.0559384469876787 0.0232335055298497 -0.9883399134133223
N 1.3741644942181002 -1.0080942887822673 -1.4501322602754843 0.2529889584625400
N 1.3211164667427939 -0.5397153686407268 -0.7544176829765100 0.5419198115726583
O 1.3229948258863424 -0.7511727568567241 -1.1147906797854750 -0.9654652454832693
