30
s                      x[A]                      y[A]                      z[A]                      q[e]
N -3.1496240325964888 0.9459776270851501 -0.3196260426243607 0.2137068255539760
N -2.4649893933844602 0.6613696136327135 0.1267102834272038 0.4524136045707061
O -2.7238497184904822 0.8020494249272117 0.5280465667579336 -0.5303393512711568
N -2.8666823336616218 1.2287458461769210 1.0848663915184125 0.2065219334641430
N -3.8649247018879027 -0.3802274635581114 -0.1042406513671830 0.0640972179527254
N -2.8982589379922836 1.3494810333809628 -0.9368348545316391 0.2729192555687945
O -2.9109610414257863 1.0313908487040919 -0.6006893054345255 -0.5760168259183410
O -1.6852176497776976 -1.4725848151231222 -0.0229976739761214 -0.7855321009151053
O -1.0902909366720790 -1.4230971636703043 -0.0113006808949850 -0.7445427033607991
N -1.4047537964527652 -1.4764370634423671 -0.0236614566867193 0.9977538426035523
N -1.8775751971729835 -0.0953455707029899 -0.0242385157491311 0.2084365764815679
N -1.1143532305308961 -0.1804141691002329 0.0373946977024610 0.3300899125146088
N -0.3109723178520190 1.0741850482628845 0.4911158004549312 0.6266498413516267
O -0.6427009800571984 1.1610291801324113 -0.0138791087703650 -0.5811225412727979
N -0.2776044024209928 1.5254463667843523 0.9185525934494285 0.5003074335780895
O -0.2522752179735799 1.4351070650557014 0.8067984577253110 -0.5967490130385100
N -0.2382068023798010 1.3632871774515416 -0.7934878227647847 0.9708061175491041
O -0.1335730267621552 1.1103709921514866 -1.0407194820997963 -0.1568654630532827
O -0.2406077437797439 1.3854761068922030 -0.6471368523211085 -0.7813807259506527
N 0.7393486282498811 -0.2249243956559274 -0.3069713280332614 0.1400529194232831
N 0.8546949814742146 -0.1692266809429457 0.3622709475798879 0.1778327620465852
N 1.2240358524993256 -0.4356216281885673 0.7133587434332589 0.7120624373414439
O 1.2343796503017168 -0.5339453613708809 0.8804496637929988 -0.9970019554920370
N 1.7556565399796711 0.7014293621979146 0.0352558173432496 0.9931708722557875
N 2.3335858686948390 1.2351478193413956 0.0145259667686971 0.8506195801821621
O 2.0606966561604576 1.1166237809911135 0.0128585746463391 -0.8089940633040810
O 2.2401078705558111 1.0604731382128840 0.0197680903140177 -0.9883399134133223
N 1.3806180081398809 -1.0058817634978583 -1.4500950078122521 0.2529889584625400
N 1.3301857547631439 -0.5365507477982296 -0.7512310431634805 0.5419198115726583
O 1.3209829404372320 -0.7593020206889547 -1.1249415751633685 -0.9654652454832693
