23
s                      x[A]                      y[A]                      z[A]                      q[e]
N       -1.0789153552816553       -1.5828534400946410        0.3938618217926238        0.2856065124296451
O       -1.1114085246824135       -1.3566085109567423        0.2994481939495051       -0.2980193526493612
N       -2.5762486070526358       -0.3405595073769763       -0.0206250242439648        0.9235469647741466
O       -2.4854595533329764       -0.3538536119120969       -0.0005089563039465       -0.9987019282037162
O       -1.3677402224913202       -0.1923432059669481        0.0345370823234037       -0.9994297377915048
N       -1.6536888659569531        0.0832401133254248       -0.0782594804404431        0.3910255639585828
N       -1.8087193458436552       -0.5444517689894750        0.1080486238359660        0.3788084070601841
N       -0.9445027663273217       -0.5619063648327880        0.1333615397027097        0.3521750120262308
N       -1.1675741567060638        0.7682407370661581       -0.1422764098038748        0.5091785922378865
N       -0.5279603929223943        0.9412673371686721        0.0824478726859924        0.9946620798872232
O       -0.6660533872692934        0.9802628560468503       -0.0116134469228920       -0.5088390984708862
O       -0.8215016127461291        0.7748484678265254       -0.0885020141204266       -0.9513197152299744
N       -1.2971362535161208        1.7787720886611349       -0.4382629961928947        0.0534150746794947
N       -0.8719419019118759        1.9182843180298137       -0.4911911098327893        0.0449830180293293
O       -0.7527569860230007        0.8694570452641676        0.3306447073104060       -0.1594766348608674
O        1.1381880981784156        1.4046521564724079        0.3111473155222612       -0.2085098172073890
N        1.1155919729787633        1.2397464718024347        0.5745180187859799        0.7433887315217406
O        1.0592390335200115        1.1982949025579013        0.7304579255391450       -0.4563903046399361
N        0.5087059070569577        0.0499618487949791       -0.1312451956845052        0.2740207269363132
N        1.2191214500707921       -0.1505885090989460        0.0340687827167412        0.2947455612059413
O        1.2983014880788246       -0.8132812305379771       -0.2814625775235738       -0.8294346811293033
N        1.5279529820350466       -0.7657854474899801       -0.2129150020547918        0.8271270632704910
O        1.7659059841364391       -0.5639062868155096       -0.0619287658884718       -0.6625620378342709

        RMSE         6.225145231E-01 kcal/mol

Coordinates in bohr
s                   x[bohr]                   y[bohr]                   z[bohr]                      q[e]
+       -2.0388545340333586       -2.9911594985176406        0.7442909744619366        0.2856065124296451
-       -2.1002577251488983       -2.5636185451733984        0.5658750753275426       -0.2980193526493612
+       -4.8684042984217042       -0.6435641983633200       -0.0389756471520214        0.9235469647741466
-       -4.6968378517020701       -0.6686864150179048       -0.0009617880242842       -0.9987019282037162
-       -2.5846544312813502       -0.3634759813700579        0.0652656267636238       -0.9994297377915048
+       -3.1250190533775828        0.1573010168371255       -0.1478889847530612        0.3910255639585828
+       -3.4179842014617483       -1.0288647319111410        0.2041823072825904        0.3788084070601841
+       -1.7848515530959299       -1.0618491376855572        0.2520167857074920        0.3521750120262308
+       -2.2063953873368409        1.4517645914748971       -0.2688634486427264        0.5091785922378865
+       -0.9977005477124288        1.7787374780877618        0.1558038990031407        0.9946620798872232
-       -1.2586584868724642        1.8524283288876391       -0.0219462340568069       -0.5088390984708862
-       -1.5524130597120998        1.4642513929227545       -0.1672445682390078       -0.9513197152299744
+       -2.4512322665479021        3.3613920871781349       -0.8281970337271377        0.0534150746794947
+       -1.6477313919242589        3.6250319918369920       -0.9282166728436474        0.0449830180293293
-       -1.4225045426085576        1.6430356933990669        0.6248279416488310       -0.1594766348608674
-        2.1508637848129113        2.6544078772665864        0.5879832110084869       -0.2085098172073890
+        2.1081632966890127        2.3427812967092274        1.0856817096461375        0.7433887315217406
-        2.0016716747474659        2.2644491833666085        1.3803654254390512       -0.4563903046399361
+        0.9613148427402547        0.0944142109440457       -0.2480174751258345        0.2740207269363132
+        2.3038056543048069       -0.2845710398380221        0.0643806687623720        0.2947455612059413
-        2.4534342407433298       -1.5368787886921060       -0.5318871860849967       -0.8294346811293033
+        2.8874126686228232       -1.4471247666172293       -0.4023510418848473        0.8271270632704910
-        3.3370786733249460       -1.0656284425051836       -0.1170284068168068       -0.6625620378342709
