23
s                      x[A]                      y[A]                      z[A]                      q[e]
N -2.3365970633362081 0.2781068147350201 0.3001408183769861 0.2856065124296451
O -2.1434377684965891 0.3254279489561234 0.2502564348885750 -0.2980193526493612
N -1.3837532158384340 2.0173451525882515 0.0956986212625944 0.9235469647741466
O -1.3837326291788579 1.9146600219661580 0.1135660181489669 -0.9987019282037162
O -1.0464950312688166 0.8258312750862992 0.0406188335109629 -0.9994297377915048
N -0.8090012531883410 1.1673713751229613 -0.0040506448489285 0.3910255639585828
N -1.4401894663543822 1.1961610206100401 0.1504325542562140 0.3788084070601841
N -1.3225394434283491 0.3291233308027902 0.0842848014288945 0.3521750120262308
N -0.3506981710877126 0.7587093113674797 -0.1294700896225872 0.5091785922378865
N -0.5706980027206494 0.1071499615244049 -0.0542935621613642 0.9946620798872232
O -0.5862326574700539 0.2597420940451928 0.0151984267612291 -0.5088390984708862
O -0.3935716573948405 0.4172757140582363 -0.0755815890460054 -0.9513197152299744
N -0.0130399247295956 0.0271923671449808 -0.1425299565516179 0.0534150746794947
N -0.0171178537741798 -0.0028979348497334 -0.1571375201606199 0.0449830180293293
O -0.6770860427664720 0.2512600126744884 -0.3442964576702201 -0.1594766348608674
O -1.0269131891000063 -1.5206098589607846 0.3168883577593309 -0.2085098172073890
N -1.0364863150803156 -1.5628864580967714 -0.0094890948061369 0.7433887315217406
O -1.0874755101342153 -1.5504960186676280 -0.1637780667395034 -0.4563903046399361
N 0.3162038754348586 -1.0133997975602482 -0.1894285204599190 0.2740207269363132
N 1.3003597789812353 -0.1835623883898141 0.0860507961951111 0.2947455612059413
O 1.7879881900055350 0.3768415462092661 0.1626820934738146 -0.8294346811293033
N 1.9492782093792826 0.1856446616970457 0.1784324751650843 0.8271270632704910
O 1.9870885781300796 -0.1713675415296194 0.1762413925164972 -0.6625620378342709
