25
s                      x[A]                      y[A]                      z[A]                      q[e]
N       -1.8809685580429403        1.2553821095188933       -0.6882989215073115        0.1158659338886357
O       -1.8709174631435515       -0.0093808817023017        0.3436028494785859       -0.2341991647481463
N       -3.3593554238301202       -0.4836834522033148        0.0411888140382279        0.0569852111266852
N       -2.1149161328951225       -0.3594575860815084        0.0513644435605842        0.3189271149812888
O       -1.8587383769851968       -0.3743994047114467       -0.3631100932124144       -0.2877498234141676
N       -1.3002423086599277       -0.7619608675186655        0.3343273143830566        0.5692545008206258
O       -0.8052514459731849       -0.6252450976255020       -0.2701780285838009       -0.2058946535748549
O       -1.0297645515656877       -0.6153338603962726        0.3620253655694346       -0.9992971180892700
N       -0.5498050703124508       -0.5755075274477230        0.1517445535932738        0.6691943173322236
N       -0.8771250615803847       -1.9326326749686213        0.8292788983841970        0.0628076875181509
N        1.5079067795948453       -0.9909596536242163       -0.1447682503902326        0.7576134719858190
O        1.2880980808760132       -0.8149993902680042       -0.1572671104015612       -0.9235083265987739
N        1.0423421033635794       -0.4627061838539235       -0.0606474373770919        0.9955526175656415
O        1.4006238828421553       -0.8784969378519090       -0.0929544303097172       -0.9936641819349231
O        0.3267995170882662        0.0916297416944338        0.1455298730113322       -0.9934394819660318
N        0.5792430631535905       -0.1497356885528719       -0.0096545122710186        0.8475065253219278
N        0.1234232466411847        0.2466788355830520        0.1235640597422649        0.9207393412409772
O        0.3763668295479946        0.3112570264544093       -0.1260131160057646       -0.6738758902636315
N        2.1213898598683625        1.6729515610606698       -0.1034831013747692        0.1207489421105395
N        0.4348371078016376        0.9169429246768088        0.0519594774140282        0.4308753055723465
O        0.8097712233301062        0.8941062300558862        0.2266489730887456       -0.7095764258838037
N        0.9848756840773616        0.8429264989723662        0.0183547975809190        0.9977500474782615
O        0.8183621844764088        0.9637511362500777       -0.0359104323373196       -0.9963537733476465
O        0.1892953168604796        2.1390076529083628        0.6094381843133249       -0.1586318904925156
N        0.1611525042614785        2.1365794829595601        0.4535241569480332        0.3123697133706422

        RMSE         4.310092420E-01 kcal/mol

Coordinates in bohr
s                   x[bohr]                   y[bohr]                   z[bohr]                      q[e]
+       -3.5545154252984834        2.3723283697902131       -1.3006964540968136        0.1158659338886357
-       -3.5355216086776524       -0.0177272972326689        0.6493152814414376       -0.2341991647481463
+       -6.3482617091102336       -0.9140292560802367        0.0778355779646634        0.0569852111266852
+       -3.9966122694841530       -0.6792763914122326        0.0970647309160400        0.3189271149812888
-       -3.5125064713800080       -0.7075123364390795       -0.6861786295609268       -0.2877498234141676
+       -2.4571018601002668       -1.4398973579265333        0.6317870604438148        0.5692545008206258
-       -1.5217046950182203       -1.1815419957973414       -0.5105624791395005       -0.2058946535748549
-       -1.9459729761640447       -1.1628124718696564        0.6841287913949815       -0.9992971180892700
+       -1.0389810052786166       -1.0875516100156004        0.2867556473211450        0.6691943173322236
+       -1.6575261441622593       -3.6521464568016508        1.5671099995675046        0.0628076875181509
+        2.8495308361553584       -1.8726423467283217       -0.2735723448992429        0.7576134719858190
-        2.4341525955834924       -1.5401256400216479       -0.2971917672010909       -0.9235083265987739
+        1.9697411043908200       -0.8743879640396524       -0.1146070468535581        0.9955526175656415
-        2.6467955433470052       -1.6601186145934543       -0.1756584154333216       -0.9936641819349231
-        0.6175615852286985        0.1731551167489240        0.2750116030640746       -0.9934394819660318
+        1.0946107494315587       -0.2829594425717787       -0.0182443840670970        0.8475065253219278
+        0.2332361336666719        0.4661554401988096        0.2335022318625899        0.9207393412409772
-        0.7112302305525786        0.5881905346232157       -0.2381302774664414       -0.6738758902636315
+        4.0088458404745655        3.1614202715618047       -0.1955547202113023        0.1207489421105395
+        0.8217230429312765        1.7327710003154750        0.0981891819344250        0.4308753055723465
-        1.5302458363708473        1.6896159018712154        0.4283044857539907       -0.7095764258838037
+        1.8611453105291405        1.5929002269487815        0.0346855405161528        0.9977500474782615
-        1.5464804000918084        1.8212257006114387       -0.0678608821643185       -0.9963537733476465
-        0.3577163056980660        4.0421386442551634        1.1516712587484732       -0.1586318904925156
+        0.3045340974858698        4.0375500680658591        0.8570364479109347        0.3123697133706422
