21
s                      x[A]                      y[A]                      z[A]                      q[e]
N -2.0046890769441683 1.3978246331288722 0.0613265097276833 0.0707249461841811
O -1.6050069189009675 -0.1188874948577135 0.3306952589780130 -0.3496602100029151
N -1.5005711921472769 0.1181287278132512 -0.1504696005265468 0.9824851761690530
N -3.0179399599311552 -0.7407422132644568 0.1249795117641790 0.1071394941056757
O -1.5568522163752128 0.0084372059141290 -0.2935551707821347 -0.8194842575378962
N -0.4724533912349158 -0.6550607682249590 -0.1526176053097115 0.3116552922920345
N -0.6887135428625316 -2.0230093356151682 -0.0107021368798416 0.0918298459672651
N -1.2205229428570452 -1.0265880434092582 -0.0143535993772149 0.5593901217632046
O -0.9281088282771113 -0.8287202099407113 -0.0492934915572389 -0.9963138680841535
N 0.6983058031825717 0.9074653132613977 -0.1438333032256119 0.9989733053171830
O 0.6674906228982145 1.0034470704690472 -0.1586763405974358 -0.8354521971080898
N 0.4677340685171397 1.7522335032170895 -0.0603299393065823 0.2899344186932475
O 0.4867541814417597 1.3649670579540758 -0.0517557141440795 -0.8678253524624289
N 0.5408392805897663 -0.3858237969346793 -0.1335164827428594 0.9219570073558310
O 0.6465230432836722 -0.2071890053660689 -0.2993758913564965 -0.9704818863270434
O 0.8035208961617450 -0.2217872904076408 0.3557335377321176 -0.3320651923316272
N 0.5950061350095501 0.3645527020620769 -0.0698607290400705 0.9769593393400061
O 1.5188671857575085 -0.5009139517628733 -0.5969257673421067 -0.1970026432733326
O 1.5019104851984064 -0.5316972199349459 0.4745124033875013 -0.1946060569702309
N 2.7692163175748297 0.0462695890884764 0.0944416718277782 0.1283355164991325
N 1.7494351499709087 -1.8654096437094456 -0.1219030154256164 0.1235072004109040
