21
s                      x[A]                      y[A]                      z[A]                      q[e]
N       -1.9986126845969512        1.3924823235789188        0.0621094477074147        0.0707249461841811
O       -1.6096617574856518       -0.1127195464442818        0.3277466415913473       -0.3496602100029151
N       -1.4853618246122087        0.1008676803101469       -0.1478695518687478        0.9824851761690530
N       -3.0162587854198986       -0.7414492841258844        0.1262838481143327        0.1071394941056757
O       -1.5681854194404978        0.0232230434983086       -0.2932872067348625       -0.8194842575378962
N       -0.4692229508572156       -0.6558321360418187       -0.1536205165267661        0.3116552922920345
N       -0.6891397359162293       -2.0223561956236198       -0.0116691558212329        0.0918298459672651
N       -1.2161163838579034       -1.0296291453747803       -0.0149348545100450        0.5593901217632046
O       -0.9351591130639380       -0.8238201005596876       -0.0476903445499829       -0.9963138680841535
N        0.7177411274222228        0.9185952199670230       -0.1370281163530683        0.9989733053171830
O        0.6478926637793293        0.9910550178592795       -0.1634854665871588       -0.8354521971080898
N        0.4833408049716942        1.7566723967409390       -0.0566383918735512        0.2899344186932475
O        0.4579137709507366        1.3526053541666199       -0.0583393633708707       -0.8678253524624289
N        0.5477689092857042       -0.3803778009163560       -0.1346818075536736        0.9219570073558310
O        0.6383484876035026       -0.2122044021972422       -0.2983671728264113       -0.9704818863270434
O        0.8003550613416531       -0.2263615744202468        0.3548947753396856       -0.3320651923316272
N        0.6087058426364538        0.3721343636414836       -0.0661208292496102        0.9769593393400061
O        1.5182563010168675       -0.5024372535485794       -0.5961304058741601       -0.1970026432733326
O        1.5009489430476235       -0.5354836893256200        0.4743847037965850       -0.1946060569702309
N        2.7688909182277088        0.0478977312177058        0.0954738745573586        0.1283355164991325
N        1.7480162501337142       -1.8614173413908215       -0.1244598444917025        0.1235072004109040

        RMSE         3.351673923E+00 kcal/mol

Coordinates in bohr
s                   x[bohr]                   y[bohr]                   z[bohr]                      q[e]
+       -3.7768306047542648        2.6314102261053041        0.1173698459704584        0.0707249461841811
-       -3.0418198762709991       -0.2130090717655164        0.6193513911462322       -0.3496602100029151
+       -2.8069270457273992        0.1906122906964128       -0.2794329553261142        0.9824851761690530
+       -5.6999030279496798       -1.4011360829146879        0.2386418870050029        0.1071394941056757
-       -2.9634409566787512        0.0438851920113973       -0.5542324968294208       -0.8194842575378962
+       -0.8867028688992949       -1.2393431213930373       -0.2903007034869559        0.3116552922920345
+       -1.3022853630520070       -3.8216993378514568       -0.0220515086174221        0.0918298459672651
+       -2.2981269021735806       -1.9457170955475385       -0.0282227847475437        0.5593901217632046
-       -1.7671946074168945       -1.5567943667049369       -0.0901216900281880       -0.9963138680841535
+        1.3563341598053305        1.7358933858923637       -0.2589456113946682        0.9989733053171830
-        1.2243396932362633        1.8728225590147549       -0.3089427573424168       -0.8354521971080898
+        0.9133817466548275        3.3196297219919715       -0.1070310488273680        0.2899344186932475
-        0.8653316161725189        2.5560536752027998       -0.1102454191045118       -0.8678253524624289
+        1.0351332185907343       -0.7188098679358345       -0.2545117303580605        0.9219570073558310
-        1.2063038141708313       -0.4010082027692891       -0.5638322414690605       -0.9704818863270434
-        1.5124518690597246       -0.4277613809817067        0.6706539287478903       -0.3320651923316272
+        1.1502873335489283        0.7032320291539353       -0.1249502584699246        0.9769593393400061
-        2.8690885971725391       -0.9494688044340294       -1.1265232021601792       -0.1970026432733326
-        2.8363824306554077       -1.0119175174751671        0.8964571682819800       -0.1946060569702309
+        5.2324455067178164        0.0905135940322556        0.1804194750497241        0.1283355164991325
+        3.3032719756025055       -3.5175689804064887       -0.2351950197063887        0.1235072004109040
