24
s                      x[A]                      y[A]                      z[A]                      q[e]
N 0.2020679262070624 -1.3247221542629661 0.1652734928245514 0.6959175615854226
O 0.2405864396965474 -1.5443832527080161 -0.0645184062057841 -0.4294665048044459
N -0.5949491808677887 -1.2919931547846757 1.1556352188886359 0.7289443612696791
O -0.5030434345404893 -1.2899650881313918 0.9934640973107707 -0.8899528116456963
N 0.7742464138153261 -2.0122988157943711 0.6613482637979089 0.4821174903544280
O 0.6190173380842997 -1.7924660466945228 0.6506321594987527 -0.6035297564939646
N -0.8278346718350327 -2.0482509504698854 -0.6617595273369692 0.0604057803354635
N 2.0762313282869966 0.0587509163453770 -0.1284908495546270 0.6991174418445399
O 1.8877542119548267 0.3950148390587338 -0.2755987974201596 -0.4131324281244263
O 1.9539940343243003 -0.1316081076692458 -0.0617548465504366 -0.9286014603942530
O 0.2682883582810620 0.2848405978114858 -0.1804974662948911 -0.1057946580878595
N 0.6025567532160843 -0.4169781972952697 -0.0928131358904534 0.9961038253671308
O 0.4662232301148637 -0.6026307585003593 -0.3215811100810423 -0.3737552305035935
N -0.0833004100567989 0.5967343323201117 -0.2564494821693723 0.9714181100989372
O -0.2545734217433975 0.8519570869165285 -0.6031424564506455 -0.9973398242463560
N -0.2606087103014705 1.0904337926472303 -0.4810219281307674 0.7637225416907655
O -0.2376550799420439 1.0429120291295628 -0.1966849291041099 -0.9974375214017446
O -1.7231212889899747 1.2309783267861976 -0.0538666884482226 -0.4871145088925188
N -1.0998713648072433 0.8468647291163177 0.1390610384062699 0.4662300369825688
N -1.8935310264311982 1.3724267435394375 -0.1444159372849465 0.6223673236702755
N -2.2200291873967157 0.2670048945279009 -0.5663739720607893 0.9509229066582735
O -2.1739870473348004 0.3482530076190683 -0.5555316138226715 -0.9922381659518612
O -1.6315137831068955 0.8842403098146531 0.6972109591455999 -0.6086911331096487
N -1.7181334380411495 0.9273848204750023 1.0163554212768657 0.3897866237988844
