21
s                      x[A]                      y[A]                      z[A]                      q[e]
N -0.2015761629716988 0.1612048227952385 -0.2371519619199524 0.0707249461841811
O 0.8107451069792676 -0.5389400584870205 0.6564374523426809 -0.3496602100029151
N 0.9249095097107459 -0.0335453193170250 0.4800270369175217 0.9824851761690530
N 1.6950018511818574 -0.6798947306735533 0.5624241721713501 0.1071394941056757
O 0.9365316367787204 0.0878711115388592 0.6245317752286594 -0.8194842575378962
N -0.3444679611281561 0.1392941806986595 0.6153659351511047 0.3116552922920345
N -0.9043177585469941 -0.1095870049959957 0.4957309183719656 0.0918298459672651
N 0.0652129714471302 -0.1678050808469694 -0.0800969962038740 0.5593901217632046
O -0.0690009419416552 -0.0592809004060555 -0.3899399317510148 -0.9963138680841535
N 1.0212777533069215 0.5075798967705263 0.5305610880083136 0.9989733053171830
O 1.1091705664266149 0.5204096324062472 0.5804810592613355 -0.8354521971080898
N 1.0680427934086532 -0.5223108081275329 -0.1538029255618665 0.2899344186932475
O 1.2845061602570511 -0.4691157910798580 0.1629579282482445 -0.8678253524624289
N -0.2752458394249588 0.3791097941474782 0.4540275688828675 0.9219570073558310
O -0.0998881730275346 0.5767829393692873 0.4212948032377091 -0.9704818863270434
O -0.0232101180016816 -0.0225468898429178 0.1203884331432739 -0.3320651923316272
N 0.4776620892064407 0.3768532486629366 0.5185262898134404 0.9769593393400061
O 0.0558741286778227 0.7273519568524500 0.4258640446042727 -0.1970026432733326
O -0.1400172365108510 0.0919241411199217 -0.6462601616318935 -0.1946060569702309
N -0.0083191738607034 0.0964810917032095 0.2229395921788756 0.1283355164991325
N -0.8917266782695625 1.4948233760077920 -0.3593947278370424 0.1235072004109040
