21
s                      x[A]                      y[A]                      z[A]                      q[e]
N       -1.8902225075299022        1.5138231730055351        0.0909627222230530        0.0707249461841811
O       -1.6235029719465379       -0.0368969193586481        0.3219606209717886       -0.3496602100029151
N       -1.4913721932155479        0.2031883876695685       -0.1518309899325514        0.9824851761690530
N       -3.0760130738902838       -0.5408662135398808        0.0732649711069260        0.1071394941056757
O       -1.5530234338340148        0.1016712982578803       -0.2989773388553822       -0.8194842575378962
N       -0.5260995274411120       -0.6498532945595734       -0.1430081387772210        0.3116552922920345
N       -0.8523721503010994       -1.9988854175110173       -0.0522833039971965        0.0918298459672651
N       -1.3042067077865609       -0.9641638499400135       -0.0398825689862436        0.5593901217632046
O       -0.9967393833168677       -0.7890448712360354       -0.0641869858090823       -0.9963138680841535
N        0.7635555335470084        0.8144699580482307       -0.1093144902860663        0.9989733053171830
O        0.7403897153311936        0.9128576746747096       -0.1221579449575269       -0.8354521971080898
N        0.6036133138910809        1.6756620552865054       -0.0032242648094207        0.2899344186932475
O        0.5927166528911623        1.2884874984318218       -0.0024101174093200       -0.8678253524624289
N        0.4988793505567533       -0.4634550835621716       -0.1230796459642610        0.9219570073558310
O        0.6188136603879042       -0.2907144100078506       -0.2863978582932559       -0.9704818863270434
O        0.7752513293888530       -0.3306522183456513        0.3690047958455648       -0.3320651923316272
N        0.6151240694538926        0.2791298315949325       -0.0450390468835921        0.9769593393400061
O        1.5223724945111872       -0.4915930663344971       -0.5944402206118118       -0.1970026432733326
O        1.4970073597027751       -0.6335132149481395        0.4119121049814904       -0.1946060569702309
N        2.7741747643675585       -0.0376453634720436        0.0190600176023297        0.1283355164991325
N        1.6992153356860586       -1.9115953103620347       -0.2898558505071647        0.1235072004109040

        RMSE         9.226873422E+00 kcal/mol

Coordinates in bohr
s                   x[bohr]                   y[bohr]                   z[bohr]                      q[e]
+       -3.5720028554076624        2.8607111993520253        0.1718946326276666        0.0707249461841811
-       -3.0679759808458003       -0.0697250724609480        0.6084173968190145       -0.3496602100029151
+       -2.8182849963007608        0.3839704045688369       -0.2869189883296668        0.9824851761690530
+       -5.8128222679803097       -1.0220890141037653        0.1384507299816710        0.1071394941056757
-       -2.9347889563643643        0.1921309085271314       -0.5649852881548736       -0.8194842575378962
+       -0.9941840215964869       -1.2280447484440673       -0.2702462160004132        0.3116552922920345
+       -1.6107499210366540       -3.7773459952672481       -0.0988011254887559        0.0918298459672651
+       -2.4645934887016074       -1.8220056164536444       -0.0753671325636787        0.5593901217632046
-       -1.8835644529266096       -1.4910787073332441       -0.1212958239978137       -0.9963138680841535
+        1.4429108399816730        1.5391251581242829       -0.2065744481846855        0.9989733053171830
-        1.3991337880816408        1.7250509966574814       -0.2308450600184779       -0.8354521971080898
+        1.1406638489341521        3.1665423633132690       -0.0060929774457566        0.2899344186932475
-        1.1200721439623484        2.4348884881124158       -0.0045544618338127       -0.8678253524624289
+        0.9427453421985310       -0.8758031793836765       -0.2325868224907642        0.9219570073558310
-        1.1693883408252106       -0.5493706156388940       -0.5412135150919346       -0.9704818863270434
-        1.4650126909420276       -0.6248421354483634        0.6973180031285960       -0.3320651923316272
+        1.1624160244449566        0.5274789351595879       -0.0851114635616440        0.9769593393400061
-        2.8768670755561945       -0.9289762605462223       -1.1233292149130556       -0.1970026432733326
-        2.8289339176329786       -1.1971664731102800        0.7784010661758500       -0.1946060569702309
+        5.2424305288111901       -0.0711394268554766        0.0360182132148085        0.1283355164991325
+        3.2110516126245385       -3.6123915992938023       -0.5477481733201879        0.1235072004109040
