21
s                      x[A]                      y[A]                      z[A]                      q[e]
N -2.1511386997059545 1.5609625284796445 0.0154606478255710 0.0690680479201058
O -1.8326024948696227 -0.3091180657522551 0.4105845532801922 -0.3117950550350966
N -1.9699161725787178 -0.4008009722935162 0.0649003529684186 0.5776243102962968
N -3.3008234964422698 -0.6372007120342926 0.1218430490579306 0.0604184539076988
O -1.8537010564056637 -0.3283227619524509 -0.2613105525042368 -0.3968494342195521
O -0.9194834453742518 -0.1783516466844011 0.0551655877673994 -0.9828651838991298
N -0.7615838227728310 -0.0275652543974184 0.0477571570052057 0.7759263489545838
N -0.9702413083255762 -1.4020844664632079 0.0040083719452524 0.9970342621901004
O -0.9919188420894768 -1.4032466392243004 -0.2758657607521711 -0.3970377457969525
O -1.0043828950863762 -1.4166564555657559 0.2759237602030691 -0.3893757401670396
N 1.8307205671893891 -1.2025305554843952 -0.1878368808089180 0.1691966627363242
O 1.4999396941111538 -0.8939757767282288 -0.1344230036639424 -0.6800109224217911
O 0.3595553949220627 0.4232383133312534 -0.3927140269320138 -0.9821368279659007
N 0.2070787357092452 0.4928085383300724 -0.2667070850457716 0.8921713087406896
O 0.5622814936604412 0.4988563626724336 0.2738850362302722 -0.3335771210350215
N 0.7896937645774764 -0.0960389861061275 -0.1392442156923526 0.9988617281482304
N 2.2368148773288734 1.7261961729085913 0.2336406670309155 0.0655379221577991
N 1.0513974065360550 1.0997024594109981 0.1405105546164572 0.9908754307264420
O 0.9321863729160953 1.1174858637670295 -0.2165920140597631 -0.6595771554465193
O 0.9657959984539388 1.1010422015032906 0.5040001141088143 -0.5578053818499882
N -0.2261983239671697 2.2465427465108823 -0.0452512440299832 0.0943160920587207
