21
s                      x[A]                      y[A]                      z[A]                      q[e]
N 1.6596079579075975 -0.0096928882607295 0.2261197505564546 0.0690680479201058
O 0.2196603824072630 -0.3009400595788495 0.3392166413264897 -0.3117950550350966
N 0.0937589597421081 0.0589240699181148 0.3767000757385529 0.5776243102962968
N -0.7950254105960074 0.1555693615956663 0.3108948179664086 0.0604184539076988
O 0.2371030217727382 0.3691569625975639 0.2851542881186404 -0.3968494342195521
O 0.4010017983874284 0.0922199327586196 -0.1292787799430784 -0.9828651838991298
N 0.2456064498703703 0.0924843062318508 0.0242657658046683 0.7759263489545838
N 0.7535405513925338 0.0151967029288288 0.3827564114429531 0.9970342621901004
O 0.7637041670670449 0.2957215814000551 0.3845701765521394 -0.3970377457969525
O 0.6894601959528252 -0.2509415184408969 0.3632596333186418 -0.3893757401670396
N 0.0403383151405588 -0.0139017811937225 -1.1643891553781907 0.1691966627363242
O -0.0980721463810809 0.0228617936169956 -0.7319934298352241 -0.6800109224217911
O -0.8878002191597438 -0.2925081616373499 0.4947569860112916 -0.9821368279659007
N -0.7280899627043111 -0.1742381616095727 0.5616280432108030 0.8921713087406896
O -0.9546092271948450 0.3832182302851069 0.7248480826859723 -0.3335771210350215
N -0.5203285531805171 -0.0176800100105328 0.2484307311320256 0.9988617281482304
N -0.2348079576585169 -0.1997732823465763 0.6760664565992932 0.0655379221577991
N 0.9301668088531300 -0.0935046869184167 0.0143089859440416 0.9908754307264420
O 1.0746014888546567 -0.4382916696692634 -0.0337568470437240 -0.6595771554465193
O 0.9901665219492134 0.2696506719752854 0.0773349771670027 -0.5578053818499882
N -0.2536221634501279 0.0240768956226618 0.9455026275724333 0.0943160920587207
