25
s                      x[A]                      y[A]                      z[A]                      q[e]
N        2.0403569825400809        1.4185923774306710       -0.0035070409997419        0.1158659338886357
O        1.8429840301519103       -0.2151644055838376       -0.4400145193803862       -0.2341991647481463
N        3.3457224143412829       -0.5770785500606563       -0.0061156414532604        0.0569852111266852
N        2.1536014191861206       -0.4271479585800967        0.0325805639019302        0.3189271149812888
O        1.9040552860325137       -0.2565403049240180        0.3395822796390044       -0.2877498234141676
N        1.3738839105160663       -0.7681415904342545       -0.1148016871152892        0.5692545008206258
O        0.7506177324347798       -0.6945445189217077        0.4971145928869828       -0.2058946535748549
O        1.0747039405660037       -0.7513964281386826       -0.1671319939195470       -0.9992971180892700
N        0.5582993354114867       -0.6299453976197867        0.0182364002869287        0.6691943173322236
N        0.8152787744554164       -2.0332920814643942        0.0207714227809132        0.0628076875181509
N       -1.7415226914829312       -1.0822415743413196       -0.0047320989363679        0.7576134719858190
O       -1.4699893585525194       -0.8545073529865646        0.0752944261496467       -0.9235083265987739
N       -1.2181569023308016       -0.5126584456284580        0.0098757835326233        0.9955526175656415
O       -1.6039183312624652       -0.9366476225376135       -0.0518085791615657       -0.9936641819349231
O       -0.3465386476566721        0.1133598587434869       -0.1161206964859522       -0.9934394819660318
N       -0.6622221926787852       -0.1655733708268150        0.0526769296284816        0.8475065253219278
N       -0.1201297043713419        0.2820708339303091       -0.0198254486720165        0.9207393412409772
O       -0.4100992350270451        0.3277562845267504        0.2567777640314539       -0.6738758902636315
N       -2.0833721112260823        1.7278916198484178        0.0227939764440252        0.1207489421105395
N       -0.4326777994716871        0.9590994740566118        0.0756923807451816        0.4308753055723465
O       -0.8063597097369877        0.9657670886633226       -0.2119244655552961       -0.7095764258838037
N       -1.0538116174446654        0.9287091776382257       -0.0078907207419343        0.9977500474782615
O       -0.8831948854543079        1.0316955256265383        0.1261923848340666       -0.9963537733476465
O       -0.0301796357153610        2.2528594700690912       -0.3707304651145051       -0.1586318904925156
N       -0.0585989720408503        2.2174786115276430       -0.2017144092121293        0.3123697133706422

        RMSE         1.379107760E+00 kcal/mol

Coordinates in bohr
s                   x[bohr]                   y[bohr]                   z[bohr]                      q[e]
+        3.8557158951662927        2.6807510770060707       -0.0066273470002640        0.1158659338886357
-        3.4827350705796225       -0.4066017985003821       -0.8315069328538857       -0.2341991647481463
+        6.3224990549105629       -1.0905204124909453       -0.0115568874281591        0.0569852111266852
+        4.0697168656590677       -0.8071926567647870        0.0615683427876257        0.3189271149812888
-        3.5981430183317191       -0.4847909164478344        0.6417175055763525       -0.2877498234141676
+        2.5962643190483754       -1.4515772314943376       -0.2169437473883973        0.5692545008206258
-        1.4184619392139173       -1.3124989226998898        0.9394104335248638       -0.2058946535748549
-        2.0308961136200541       -1.4199334608293641       -0.3158336953096268       -0.9992971180892700
+        1.0550328399528293       -1.1904242754940306        0.0344618020565158        0.6691943173322236
+        1.5406535996196407       -3.8423651670297923        0.0392523002920216        0.0628076875181509
+       -3.2910009281729282       -2.0451401770894022       -0.0089423709883056        0.7576134719858190
-       -2.7778772950016908       -1.6147848693345253        0.1422858441963424       -0.9235083265987739
+       -2.3019829232412956       -0.9687840581406986        0.0186625261509645        0.9955526175656415
-       -3.0309663736874035       -1.7700074826572907       -0.0979040255644607       -0.9936641819349231
-       -0.6548631359576385        0.2142190866457762       -0.2194363138558629       -0.9934394819660318
+       -1.2514185783630682       -0.3128883245315493        0.0995449701278452        0.8475065253219278
+       -0.2270122407940502        0.5330366241077814       -0.0374646683044328        0.9207393412409772
-       -0.7749752384608771        0.6193696136531895        0.4852396491268839       -0.6738758902636315
+       -3.9370027076341598        3.2652419359872011        0.0430743727893447        0.1207489421105395
+       -0.8176425415672504        1.8124353330376417        0.1430378693922707        0.4308753055723465
-       -1.5237990100065766        1.8250352985544274       -0.4004791991835306       -0.7095764258838037
+       -1.9914153447961547        1.7550059959354101       -0.0149113011347252        0.9977500474782615
-       -1.6689964489137397        1.9496219882944157        0.2384690464547639       -0.9963537733476465
-       -0.0570312460681178        4.2572873975746397       -0.7005790454300124       -0.1586318904925156
+       -0.1107360083905676        4.1904272648477372       -0.3811849889694519        0.3123697133706422
