25
s                      x[A]                      y[A]                      z[A]                      q[e]
N 1.7994744268273641 1.0001701714348008 -1.2486695169508348 0.1158659338886357
O 1.7862188022866887 -0.4014594105577119 -0.3235251228741927 -0.2341991647481463
N 3.3730156858541678 -0.2695981862094147 0.0316874642372563 0.0569852111266852
N 2.1710577600576633 -0.2164262699196541 0.0982015743640986 0.3189271149812888
O 1.9338314985512111 0.1282115351798694 0.2359507622781953 -0.2877498234141676
N 1.4607211326769631 -0.4584880767769326 0.4011219906397167 0.5692545008206258
O 0.7033093693193805 -0.5131563825474456 0.8352037393857701 -0.2058946535748549
O 1.1836849776413940 -0.4754016876906028 0.2716115431215570 -0.9992971180892700
N 0.6270254809002591 -0.4615821260775615 0.3282657655113299 0.6691943173322236
N 1.0260423110111865 -1.3581267800802590 1.4412332658861418 0.0628076875181509
N -1.5028905153098282 -1.2657591830819712 -0.2793755056064002 0.7576134719858190
O -1.3034179838863797 -1.0020118250361616 -0.1309333321985184 -0.9235083265987739
N -1.0980060045187465 -0.6262160977538862 -0.1250178641493643 0.9955526175656415
O -1.3871351629939799 -1.0962510914935570 -0.2882860944567663 -0.9936641819349231
O -0.3367073193849597 0.1381489476407977 -0.0201562121326074 -0.9934394819660318
N -0.6323869639864866 -0.2008179509963530 0.0614705493735322 0.8475065253219278
N -0.1701760112731079 0.3261134409058509 0.1342858020791101 0.9207393412409772
O -0.5227406092079940 0.3184776602164927 0.3279173170149731 -0.6738758902636315
N -2.2982770600433344 1.4757732307958473 -0.1676942470394350 0.1207489421105395
N -0.6045681085907710 0.9284609774523521 0.2249803194323344 0.4308753055723465
O -0.8967085551125747 0.9266240264583232 -0.1452897266005277 -0.7095764258838037
N -1.1753759412033478 0.8274555812398274 -0.0126142734046512 0.9977500474782615
O -1.0593998246227321 0.9388048947490741 0.1669656323820926 -0.9963537733476465
O -0.3109327537667071 2.3083743865107000 0.0102815683937458 -0.1586318904925156
N -0.3754935074731084 2.2464120407953345 0.1637208255680784 0.3123697133706422
