21
s                      x[A]                      y[A]                      z[A]                      q[e]
N       -2.0398605445784566        1.4365705712813384        0.1796997980706682        0.0690680479201058
O       -1.7721311449451080       -0.4598687442744418        0.3680930229901206       -0.3117950550350966
N       -1.9112033357965332       -0.5193419927700250        0.0165920694281520        0.5776243102962968
N       -3.2474598598804576       -0.7419781141254927        0.0330541358950372        0.0604184539076988
O       -1.7927225683278332       -0.4264843948641970       -0.3032855571621217       -0.3968494342195521
O       -0.5415665341456997       -0.9792034879631741       -0.1289228026528959       -0.9828651838991298
N       -0.3202599694121249       -0.9614695344937991       -0.1200865868342162        0.7759263489545838
N       -0.9098807675773877       -1.5224576464786181       -0.1231473508959705        0.9970342621901004
O       -0.9275537500548157       -1.5070502828412580       -0.4028715509952521       -0.3970377457969525
O       -0.9404234539696853       -1.5641144414722621        0.1460925450576744       -0.3893757401670396
N        0.5075188183730069        1.7846726852763830        0.0727856838038925        0.1691966627363242
O        0.5098289913027794        1.3368575066536323        0.0273730171396951       -0.6800109224217911
O        0.7075829445130373       -0.3833338131857366        0.3178248784191905       -0.9821368279659007
N        0.6620268725328358       -0.5549678194009646        0.1941877019120789        0.8921713087406896
O        0.9062540107919965       -0.2994715115407017       -0.3491785480094264       -0.3335771210350215
N        0.6221442940016593        0.2697647035442041        0.0518502444152105        0.9988617281482304
N        2.9661919786824793        0.0555929572659467        0.1052400831978174        0.0655379221577991
N        1.6956007459249007       -0.3709255163051330        0.0262572501005367        0.9908754307264420
O        1.5674389463331602       -0.4470004161878164        0.3724692086176937       -0.6595771554465193
O        1.6849960936962656       -0.4387195813763820       -0.3398979040810149       -0.5578053818499882
N        1.6253744751858705       -2.0700834273098785        0.0574862828789585        0.0943160920587207

        RMSE         1.318229633E+00 kcal/mol

Coordinates in bohr
s                   x[bohr]                   y[bohr]                   z[bohr]                      q[e]
+       -3.8547777633805422        2.7147249396142223        0.3395834031536379        0.0690680479201058
-       -3.3488425223402638       -0.8690259803368977        0.6955950021431798       -0.3117950550350966
+       -3.6116508747168594       -0.9814141317848468        0.0313544670737890        0.5776243102962968
+       -6.1368097385917189       -1.4021354267808737        0.0624632641552852        0.0604184539076988
-       -3.3877546730669628       -0.8059387030749454       -0.5731266408432949       -0.3968494342195521
-       -1.0234124282487775       -1.8504264133434400       -0.2436287883404212       -0.9828651838991298
+       -0.6052036311364174       -1.8169140981647087       -0.2269307604576784        0.7759263489545838
+       -1.7194254575426116       -2.8770279894536830       -0.2327147662690379        0.9970342621901004
-       -1.7528225542449656       -2.8479122918637345       -0.7613168951194437       -0.3970377457969525
-       -1.7771427699598017       -2.9557479232560127        0.2760748991301122       -0.3893757401670396
+        0.9590715702409576        3.3725425987577573        0.1375450082435284        0.1691966627363242
-        0.9634371643806741        2.5262945563377812        0.0517275056214867       -0.6800109224217911
-        1.3371379761746633       -0.7243959215484570        0.6006019760692022       -0.9821368279659007
+        1.2510494767804392       -1.0487371871103646        0.3669615735458726        0.8921713087406896
-        1.7125718804945764       -0.5659191391888094       -0.6598518246228435       -0.3335771210350215
+        1.1756823261794516        0.5097814080138685        0.0979827614827971        0.9988617281482304
+        5.6052904752397303        0.1050554637369201        0.1988749346642709        0.0655379221577991
+        3.2042210279200658       -0.7009476387607434        0.0496190114976644        0.9908754307264420
-        2.9620303269458632       -0.8447083645606389        0.7038647944534578       -0.6595771554465193
-        3.1841811395522197       -0.8290598546768707       -0.6423139493302528       -0.5578053818499882
+        3.0715126094110459       -3.9118907344647584        0.1086333306118269        0.0943160920587207
