24
s                      x[A]                      y[A]                      z[A]                      q[e]
N 1.4631462279648482 -0.6474728892742853 -0.2272071425314628 0.6959175615854226
O 1.6536839355853954 -0.6650126604294861 -0.4819872452062031 -0.4294665048044459
N 1.1391186137761862 -1.5912812758711332 0.5526282115383090 0.7289443612696791
O 1.1547270297857524 -1.4629057636415579 0.3946581472699841 -0.8899528116456963
N 2.3484731780988106 -0.5792570229677447 0.2379528311315900 0.4821174903544280
O 2.0869445015383574 -0.6128653660379013 0.2370386898318027 -0.6035297564939646
N 1.5828571981814923 -1.6388577982103740 -1.3656554340905154 0.0604057803354635
N 0.7701038491317637 1.5002434211536122 0.4958808212027431 0.6991174418445399
O 0.4178714470970387 1.5085495695047519 0.3601260724405018 -0.4131324281244263
O 0.9437892776725273 1.3202224323922709 0.4709064073581521 -0.9286014603942530
O -0.0164138559146443 0.0710264288794880 -0.2335693534970014 -0.1057946580878595
N 0.7536197889652013 0.1181522062240558 -0.1881617266830851 0.9961038253671308
O 0.8537136665096783 -0.0537078075813283 -0.4893118340110300 -0.3737552305035935
N -0.3955952430792528 -0.1500489090295526 -0.4206136055017414 0.9714181100989372
O -0.6825386941773510 -0.1134180962053805 -0.8199324128767063 -0.9973398242463560
N -0.9293048781257029 -0.1208068845100441 -0.6185674887425152 0.7637225416907655
O -0.8363782680992786 -0.2360729422572439 -0.4321652846461746 -0.9974375214017446
O -2.1394664250857276 -0.0078792257502813 -0.0132880358465541 -0.4871145088925188
N -1.4244346462909199 0.1840976356749707 0.0449095660404972 0.4662300369825688
N -2.3605425564975770 -0.0954708148927244 -0.0668191418502072 0.6223673236702755
N -2.0048536469176343 -0.8609636416394237 0.7915577563197316 0.9509229066582735
O -1.9999627426510167 -0.8271406522515965 0.6954698710490560 -0.9922381659518612
O -1.8571728596276023 0.5750432898951007 0.4571870133396729 -0.6086911331096487
N -1.9274011496399366 0.8911651058169431 0.6335518854784050 0.3897866237988844
