25
s                      x[A]                      y[A]                      z[A]                      q[e]
N -1.9891578633474754 1.3622536180470297 -0.4921583284188661 0.1158659338886357
O -1.8593174563080972 -0.0871818751946608 0.4119730835479107 -0.2341991647481463
N -3.3501584567125891 -0.5250041982415783 0.0427037069143272 0.0569852111266852
N -2.1513733758019011 -0.4139049457816755 -0.0036248915299160 0.3189271149812888
O -1.8836436695550189 -0.3326058443737048 -0.3312551069049213 -0.2877498234141676
N -1.3686279497353278 -0.7495321845974863 0.2875047926316805 0.5692545008206258
O -0.8036596677057227 -0.6606669731124610 -0.3767486273033120 -0.2058946535748549
O -1.0656433394502627 -0.7388250217897847 0.3122676374777285 -0.9992971180892700
N -0.5666816616737713 -0.6172121240027397 0.0841600799267157 0.6691943173322236
N -0.8444346652201804 -1.9710473837412488 0.5012481809242348 0.0628076875181509
N 1.7224659397663284 -1.0951248730963110 -0.1247675688876990 0.7576134719858190
O 1.4474963988776182 -0.8621073571043725 -0.1705066114016661 -0.9235083265987739
N 1.2070349230796085 -0.5208611169448281 -0.0690712008959327 0.9955526175656415
O 1.5916201414347384 -0.9502660202018608 -0.0596212448089782 -0.9936641819349231
O 0.3585449637934191 0.1074624337715104 0.1611003758904057 -0.9934394819660318
N 0.6537596903076272 -0.1674765773684340 -0.0467680708268538 0.8475065253219278
N 0.1262679141752858 0.2817387646717828 0.0927460767699430 0.9207393412409772
O 0.3898663818439716 0.3355564117788981 -0.2077507369990967 -0.6738758902636315
N 2.0859310600628640 1.7205353916418042 -0.0825672760132613 0.1207489421105395
N 0.4327539012417443 0.9600779532644614 0.0056912308774262 0.4308753055723465
O 0.8370978345681905 0.9471381900871996 0.2480641326856023 -0.7095764258838037
N 1.0590622235353762 0.9230527810487377 0.0148534821523318 0.9977500474782615
O 0.8751369434386884 1.0349442497026358 -0.0916656564649758 -0.9963537733476465
O 0.0942897199396449 2.2205644108118143 0.5787629836438299 -0.1586318904925156
N 0.1028216229664469 2.1963578985319936 0.4056527806657996 0.3123697133706422
