21
s                      x[A]                      y[A]                      z[A]                      q[e]
N       -1.9166205073476099        1.3764594627520583       -0.9277568366591957        0.0707249461841811
O       -1.6936332089995489        0.1999726318474396        0.1345052430716172       -0.3496602100029151
N       -1.5040259792056334        0.1692119502161918       -0.3766387900843379        0.9824851761690530
N       -3.1185981953988313       -0.3954831743568628        0.0852128089289930        0.1071394941056757
O       -1.5503409793829612        0.0109295599517994       -0.4598678442631092       -0.8194842575378962
N       -0.6169622011264091       -0.2869700843337041        0.3508622304520970        0.3116552922920345
N       -0.9105159402793654       -1.6446776671500407        0.8898593608212546        0.0918298459672651
N       -1.4068247683062605       -0.5867672108889450        0.3858720055888289        0.5593901217632046
O       -1.0646316757802290       -0.4989475633754474        0.3466918707769532       -0.9963138680841535
N        1.2770674790519949       -0.5122228055379751       -0.0402753322399231        0.9989733053171830
O        1.3247610929222491       -0.5969845237500646       -0.0400785007823644       -0.8354521971080898
N        1.6828258263997784       -1.2668490808073865       -0.2355931552964821        0.2899344186932475
O        1.4280762164781449       -0.9763444027396393       -0.1843835888208968       -0.8678253524624289
N        0.2649123324771339        0.2903691554363638        0.1801701005474551        0.9219570073558310
O        0.4935253622976763        0.2398657256511494        0.2999127501417209       -0.9704818863270434
O        0.4654674395066246        0.3845219299439945       -0.3578980910564597       -0.3320651923316272
N        0.8097066191636361       -0.1962777745638476       -0.0113806646565074        0.9769593393400061
O        0.9659628936269851        1.0197312220493451        0.5814765860597376       -0.1970026432733326
O        0.8006117606329023        1.1045101311745558       -0.4060060875619951       -0.1946060569702309
N        2.1478745649105937        1.5339269953502646       -0.1174017069009225        0.1283355164991325
N        0.1178874459217728        2.1836146383762811        0.3474858517874439        0.1235072004109040

        RMSE         1.536522872E+00 kcal/mol

Coordinates in bohr
s                   x[bohr]                   y[bohr]                   z[bohr]                      q[e]
+       -3.6218878453230157        2.6011314073962111       -1.7532063323069931        0.0707249461841811
-       -3.2005029219894259        0.3778935067786667        0.2541780718434904       -0.3496602100029151
+       -2.8421971862721778        0.3197642430632071       -0.7117441614832002        0.9824851761690530
+       -5.8932964846508087       -0.7473548867611570        0.1610288712567641        0.1071394941056757
-       -2.9297198521078580        0.0206538749806729       -0.8690242795619694       -0.8194842575378962
+       -1.1658895898885424       -0.5422948655902368        0.6630335233217329        0.3116552922920345
+       -1.7206257599917165       -3.1079903555704660        1.6815904821271290        0.0918298459672651
+       -2.6585135186094964       -1.1088293279788624        0.7291924100440190        0.5593901217632046
-       -2.0118622917118469       -0.9428742457441085        0.6551526856910578       -0.9963138680841535
+        2.4133077791371225       -0.9679608176804161       -0.0761093475452766        0.9989733053171830
-        2.5034356472852397       -1.1281372510244965       -0.0757373899976160       -0.8354521971080898
+        3.1800799287428210       -2.3939978050139534       -0.4452065405428055        0.2899344186932475
-        2.6986729354237196       -1.8450235253016158       -0.3484344849005225       -0.8678253524624289
+        0.5006117556380102        0.5487181790552217        0.3404721460308897        0.9219570073558310
-        0.9326277707099587        0.4532805283648769        0.5667529593007160       -0.9704818863270434
-        0.8796059809856297        0.7266411368266311       -0.6763293729208766       -0.3320651923316272
+        1.5301237521896551       -0.3709112384400248       -0.0215063393264765        0.9769593393400061
-        1.8254053163097548        1.9270127312516852        1.0988314960191135       -0.1970026432733326
-        1.5129369604167846        2.0872216507134107       -0.7672403107608208       -0.1946060569702309
+        4.0588946795179144        2.8987019176584234       -0.2218570727040158        0.1283355164991325
+        0.2227749864218710        4.1264336300718059        0.6566530923496995        0.1235072004109040
