25
s                      x[A]                      y[A]                      z[A]                      q[e]
N        1.6825791827124745        0.2810457598668221       -1.6305849027066335        0.1158659338886357
O        1.8152984724817174       -0.3881412144075057       -0.1019024215120433       -0.2341991647481463
N        3.3740358238171515        0.0168201479833223        0.0534121067762280        0.0569852111266852
N        2.1585700854715277        0.0606893080983480        0.1637052333095739        0.3189271149812888
O        1.9224840730398476        0.3892343274392525        0.0347496884381465       -0.2877498234141676
N        1.4925605629765937        0.0039556585238844        0.5484971012684936        0.5692545008206258
O        0.7367678712490532       -0.1298862236086656        0.9552255099128655       -0.2058946535748549
O        1.2118351234966975       -0.0207800418896200        0.4372408719028252       -0.9992971180892700
N        0.6897093668687362       -0.1677516735477330        0.4496802710119701        0.6691943173322236
N        1.1506508835847513       -0.1878381375694921        1.9766432030451391        0.0628076875181509
N       -1.1698654254952625       -1.4487327928820295       -0.1684555664878675        0.7576134719858190
O       -1.0385749656128338       -1.1556439633953242       -0.0445057747660757       -0.9235083265987739
N       -0.9190081058098268       -0.7278300497594722       -0.0585353533860628        0.9955526175656415
O       -1.0856241780261948       -1.2738679097284029       -0.1865598310626095       -0.9936641819349231
O       -0.3668711903679883        0.1710020343165206        0.0029658393814431       -0.9934394819660318
N       -0.5758111249731249       -0.2037379198630511        0.1032970920409740        0.8475065253219278
N       -0.2566647094550026        0.3975055487958277        0.1391042874107780        0.9207393412409772
O       -0.6051325347399897        0.3363228276359801        0.3047985630284047       -0.6738758902636315
N       -2.5563249637192613        1.0144201168275555       -0.3789837596197425        0.1207489421105395
N       -0.8170207026140909        0.8953781196531138        0.1340290800239488        0.4308753055723465
O       -1.0741631487686589        0.7849843609765838       -0.2316863754449755       -0.7095764258838037
N       -1.3198174742102482        0.6502162195431588       -0.1011273464110211        0.9977500474782615
O       -1.2463330580984828        0.7961771645962160        0.0581247570180988       -0.9963537733476465
O       -0.8082801782945253        2.2711844754376620       -0.2335641308191051       -0.1586318904925156
N       -0.8869361690230062        2.2091169597464506       -0.0915031006653998        0.3123697133706422

        RMSE         6.353156183E-01 kcal/mol

Coordinates in bohr
s                   x[bohr]                   y[bohr]                   z[bohr]                      q[e]
+        3.1796138397232436        0.5310995148694808       -3.0813588904218361        0.1158659338886357
-        3.4304169489523897       -0.7334805932327918       -0.1925676681787241       -0.2341991647481463
+        6.3760036444978967        0.0317854730781509        0.1009342535907811        0.0569852111266852
+        4.0791062841472829        0.1146861710494076        0.3093580562592709        0.3189271149812888
-        3.6329683785999753        0.7355462774869622        0.0656673940930853       -0.2877498234141676
+        2.8205306896849129        0.0074751112559743        1.0365093020049605        0.5692545008206258
-        1.3922894946972852       -0.2454493900903528        1.8051146017861175       -0.2058946535748549
-        2.2900364926191230       -0.0392685880469229        0.8262654987527285       -0.9992971180892700
+        1.3033618095448285       -0.3170047200924240        0.8497725562342764        0.6691943173322236
+        2.1744150359912386       -0.3549626359224107        3.7353143015030419        0.0628076875181509
+       -2.2107252578282361       -2.7377082075166559       -0.3183348849709214        0.7576134719858190
-       -1.9626222457650375       -2.1838505893557740       -0.0841037253091950       -0.9235083265987739
+       -1.7366736270563419       -1.3753994599237456       -0.1106157865565491        0.9955526175656415
-       -2.0515323716447806       -2.4072614693961172       -0.3525469867200121       -0.9936641819349231
-       -0.6932860731161997        0.3231470117543649        0.0056046241630247       -0.9934394819660318
+       -1.0881253261909767       -0.3850088699116411        0.1952032135136505        0.8475065253219278
+       -0.4850260069401613        0.7511766205739271        0.2628690060833416        0.9207393412409772
-       -1.1435347602626753        0.6355580339715617        0.5759858075567810       -0.6738758902636315
+       -4.8307540691003226        1.9169761969590138       -0.7161755116776569        0.1207489421105395
+       -1.5439453667697585        1.6920194248717944        0.2532782540923340        0.4308753055723465
-       -2.0298741652321786        1.4834054550132687       -0.4378237965910013       -0.7095764258838037
+       -2.4940935618508693        1.2287305772671300       -0.1911029885111306        0.9977500474782615
-       -2.3552281409104521        1.5045567884304067        0.1098398718729895       -0.9963537733476465
-       -1.5274281696128758        4.2919166389687833       -0.4413722399787128       -0.1586318904925156
+       -1.6760664502162550        4.1746260330248370       -0.1729157998878036        0.3123697133706422
