25
s                      x[A]                      y[A]                      z[A]                      q[e]
N 0.0826295794242501 -0.0090911049541298 0.2378018467013445 0.1158659338886357
O -0.1697899344232837 0.4582857069306654 0.2911765202048971 -0.2341991647481463
N -0.0769460404813218 -0.0034299450504950 -0.3907439605926722 0.0569852111266852
N -0.5209213527002818 -0.0449635311436499 0.1692241443371247 0.3189271149812888
O -0.2226597855113522 -0.3338171399808929 0.2458492109776690 -0.2877498234141676
N -0.0008204926277376 0.1261418053052573 -0.5531709291654332 0.5692545008206258
O -0.1411785954547357 -0.4881651339226131 0.0471709357211497 -0.2058946535748549
O -0.0377696449122208 0.1487639744954408 -0.2536786854016229 -0.9992971180892700
N -0.1969259128241388 -0.0164150316423442 0.2380488867320211 0.6691943173322236
N 0.0170250408848334 -0.0375248582416572 0.4099320259110965 0.0628076875181509
N 0.0573876506165670 0.0027159401349261 0.2655173470256446 0.7576134719858190
O 0.0282898235409626 -0.0695456140587716 -0.0702354554326349 -0.9235083265987739
N 0.0979870703402129 -0.0123263550153272 -0.5042207566627310 0.9955526175656415
O 0.0589567094607755 0.0502386038655273 0.0756831694262897 -0.9936641819349231
O -0.0438778121767849 0.1107950190629300 -0.1266716414645956 -0.9934394819660318
N -0.0353676036835898 -0.0545834271642236 0.2826966606652135 0.8475065253219278
N -0.0843421131816205 0.0185503490098055 -0.3943911528627177 0.9207393412409772
O 0.1538496739123740 -0.2440433717429704 -0.2298196178517965 -0.6738758902636315
N -0.0678295128956104 0.0211200680495937 0.2151073597575270 0.1207489421105395
N 0.2696362998647135 0.0758774214502780 -0.4867407312442825 0.4308753055723465
O 0.3542764868128008 -0.2039699526531172 -0.1318256000175209 -0.7095764258838037
N 0.4511872400462492 -0.0069160706373297 0.0869769048858370 0.9977500474782615
O 0.3125353702952232 0.1196682051126642 -0.0445793961224028 -0.9963537733476465
O -0.0235837176044275 -0.3620794677285132 -0.1396580456876637 -0.1586318904925156
N -0.0404480258785027 -0.2019433381418956 -0.0765854702452365 0.3123697133706422
