21
s                      x[A]                      y[A]                      z[A]                      q[e]
N -2.0942015713931665 1.6077300797055614 -0.3063341735338080 0.0690680479201058
O -1.8668865574413134 -0.1706353331293357 0.4026742194151843 -0.3117950550350966
N -1.9858005324344201 -0.3228673337509966 0.0718521338146207 0.5776243102962968
N -3.3222734958641076 -0.5258912965692012 0.0752913015803804 0.0604184539076988
O -1.8474277778614780 -0.3157865746186819 -0.2536865623378587 -0.3968494342195521
O -0.9335976085174585 -0.0660113999162545 0.1152820855522624 -0.9828651838991298
N -0.7638407956083195 0.0710063562828874 0.1037724930296219 0.7759263489545838
N -1.0857041087404991 -1.2830197958150922 0.0766350135452045 0.9970342621901004
O -1.0982781776043242 -1.2909251509564421 -0.2036865775266280 -0.3970377457969525
O -1.0714232415915943 -1.3012504231412452 0.5320676955843565 -0.3893757401670396
N 1.7238949626653324 -1.3235740026402345 -0.0836971942029231 0.1691966627363242
O 1.4202067643338601 -0.9867030005404027 -0.0416676106008417 -0.6800109224217911
O 0.3951227889718906 0.4144468799589329 -0.3470217140702340 -0.9821368279659007
N 0.2487061840501256 0.5004002104664393 -0.2239725369398609 0.8921713087406896
O 0.6022961906164703 0.4931586015822209 0.3177315084255083 -0.3335771210350215
N 0.7794615268773983 -0.1318128063462317 -0.0750989622048086 0.9988617281482304
N 2.3735495029169686 1.5915789219352017 -0.0674356686724717 0.0655379221577991
N 1.1412538932598941 1.0569505768254557 -0.0193335495625928 0.9908754307264420
O 1.0020130727819381 1.0407157111654695 -0.3691880730605915 -0.6595771554465193
O 1.0784481828974504 1.1095448529327665 0.3450060457342669 -0.5578053818499882
N -0.0375530436927908 2.2883581516474307 -0.0745891672940433 0.0943160920587207
