21
s                      x[A]                      y[A]                      z[A]                      q[e]
N       -2.0941899413770808        1.6074505422988654       -0.3062849097485576        0.0690680479201058
O       -1.8670225447622946       -0.1711623652538796        0.4014193663832779       -0.3117950550350966
N       -1.9856194206217221       -0.3214551307056913        0.0737226226048342        0.5776243102962968
N       -3.3222960231606633       -0.5257161987059600        0.0754730114938969        0.0604184539076988
O       -1.8475471626850710       -0.3169036417884514       -0.2546460874394973       -0.3968494342195521
O       -0.9346962263036330       -0.0675564396034336        0.1123818567235567       -0.9828651838991298
N       -0.7628189054088456        0.0719531435487688        0.1061065920773855        0.7759263489545838
N       -1.0842322892796996       -1.2772521065084166        0.0812193458855830        0.9970342621901004
O       -1.0988343346356382       -1.2936632133265256       -0.2052729165691707       -0.3970377457969525
O       -1.0720037657921233       -1.3031659665071735        0.5296005118815176       -0.3893757401670396
N        1.7243932601649168       -1.3231991794629276       -0.0831602489424161        0.1691966627363242
O        1.4183630781708725       -0.9879986484114951       -0.0436793975659132       -0.6800109224217911
O        0.3934135838912087        0.4136534103719168       -0.3486852375606289       -0.9821368279659007
N        0.2502306224489658        0.5008793360632248       -0.2221523559289632        0.8921713087406896
O        0.6017209545859983        0.4930456225058051        0.3167575692233845       -0.3335771210350215
N        0.7812993863698103       -0.1305178524390718       -0.0726162457274593        0.9988617281482304
N        2.3736243470105216        1.5915395021649867       -0.0673596285095751        0.0655379221577991
N        1.1427787781350198        1.0568359152507227       -0.0175770259005986        0.9908754307264420
O        1.0008158929579318        1.0406727629392940       -0.3701570327153557       -0.6595771554465193
O        1.0775895593497895        1.1096691669929619        0.3436980480514821       -0.5578053818499882
N       -0.0371124190012686        2.2882083748121946       -0.0743507453118093        0.0943160920587207

        RMSE         4.927949687E+00 kcal/mol

Coordinates in bohr
s                   x[bohr]                   y[bohr]                   z[bohr]                      q[e]
+       -3.9574454438912672        3.0376412851635197       -0.5787945957853423        0.0690680479201058
-       -3.5281612796560653       -0.3234499933154115        0.7585726639192081       -0.3117950550350966
+       -3.7522768943653046       -0.6074621586570058        0.1393155659736230        0.5776243102962968
+       -6.2782295914713515       -0.9934596352710315        0.1426233215869960        0.0604184539076988
-       -3.4913581413414629       -0.5988610911403657       -0.4812113641800366       -0.3968494342195521
-       -1.7663198782128178       -0.1276631688615224        0.2123709306779637       -0.9828651838991298
+       -1.4415188145442392        0.1359717351729258        0.2005123991319320        0.7759263489545838
+       -2.0489020831167979       -2.4136566744649994        0.1534823198125819        0.9970342621901004
-       -2.0764959497110351       -2.4446691717668592       -0.3879095932896869       -0.3970377457969525
-       -2.0257935228065502       -2.4626267727161069        1.0007999233583427       -0.3893757401670396
+        3.2586309942970408       -2.5004840586154558       -0.1571500950260604        0.1691966627363242
-        2.6803177642042817       -1.8670468578202257       -0.0825420987245653       -0.6800109224217911
-        0.7434439275892120        0.7816916564645394       -0.6589196029797897       -0.9821368279659007
+        0.4728673446313847        0.9465247670606471       -0.4198071108309680        0.8921713087406896
-        1.1370878081165843        0.9317211938918381        0.5985850539979461       -0.3335771210350215
+        1.4764418622272004       -0.2466429955927637       -0.1372248166838453        0.9988617281482304
+        4.4854999405685607        3.0075737769393212       -0.1272912497956781        0.0655379221577991
+        2.1595389126605222        1.9971304393714260       -0.0332157650522100        0.9908754307264420
-        1.8912679396960090        1.9665865081787648       -0.6994954152441556       -0.6595771554465193
-        2.0363491428238860        2.0969708154816256        0.6494951806717457       -0.5578053818499882
+       -0.0701323077656348        4.3240871463740023       -0.1405025458629871        0.0943160920587207
