21
s                      x[A]                      y[A]                      z[A]                      q[e]
N       -1.8651126116373173        1.3085840229305767        0.8207337700342052        0.0707249461841811
O       -1.5627843724305062       -0.1798884564628639        0.3899242853737367       -0.3496602100029151
N       -1.5057933223852147        0.2161977595213337        0.0165854961300111        0.9824851761690530
N       -3.0452044357607155       -0.6252948136346022        0.1232771931799553        0.1071394941056757
O       -1.5883741464243943        0.1682286083138080       -0.1465976481870978       -0.8194842575378962
N       -0.5056954881428946       -0.5971596438287268       -0.3396142922505425        0.3116552922920345
N       -0.8558311700728988       -1.8435506286464329       -0.7491465476258404        0.0918298459672651
N       -1.2937088490713644       -0.9034225683262239       -0.3385975328419675        0.5593901217632046
O       -0.9840155211076250       -0.7310072279398832       -0.3241044697388600       -0.9963138680841535
N        0.7839712483863465        0.8684365394180101       -0.1632208197501946        0.9989733053171830
O        0.7630533300415653        0.9663769550064226       -0.1820214624242073       -0.8354521971080898
N        0.6096038229158304        1.7292848942389847       -0.1102039294784278        0.2899344186932475
O        0.5977898200292887        1.3422764790336528       -0.0999808110601576       -0.8678253524624289
N        0.5222381172741875       -0.4133107088972630       -0.1781872242978174        0.9219570073558310
O        0.6642703930017291       -0.2448624638759528       -0.3278627674237746       -0.9704818863270434
O        0.7268876606736895       -0.2660330765838499        0.3438640206597477       -0.3320651923316272
N        0.6272413859445215        0.3314705007306367       -0.1054534912769537        0.9769593393400061
O        1.5681340044470680       -0.6184410045451191       -0.3615225818594424       -0.1970026432733326
O        1.3635932383082374       -0.5477073879018103        0.6197025996028105       -0.1946060569702309
N        2.7176208277751517       -0.1051100076926962        0.3907241449055655        0.1283355164991325
N        1.5834461038936156       -1.9599102095353340        0.2182984365653102        0.1235072004109040

        RMSE         4.459324558E-01 kcal/mol

Coordinates in bohr
s                   x[bohr]                   y[bohr]                   z[bohr]                      q[e]
+       -3.5245520291319186        2.4728654154886165        1.5509620472791348        0.0707249461841811
-       -2.9532344570391440       -0.3399399158461570        0.7368501090212239       -0.3496602100029151
+       -2.8455369808512820        0.4085545544329132        0.0313420453405616        0.9824851761690530
+       -5.7546023796170891       -1.1816359454385914        0.2329601326252732        0.1071394941056757
-       -3.0015921214999559        0.3179059961800149       -0.2770294057098342       -0.8194842575378962
+       -0.9556259754697772       -1.1284681800122365       -0.6417780006447202        0.3116552922920345
+       -1.6172865210678986       -3.4838057865573671       -1.4156818028450877        0.0918298459672651
+       -2.4447554108261356       -1.7072212296942753       -0.6398566038270309        0.5593901217632046
-       -1.8595198380930780       -1.3814034565365028       -0.6124686838431798       -0.9963138680841535
+        1.4814909496834672        1.6411072168404008       -0.3084426473005859        0.9989733053171830
-        1.4419618128971405        1.8261877789160210       -0.3439707129370650       -0.8354521971080898
+        1.1519842703430121        3.2678748430029865       -0.2082552446634971        0.2899344186932475
-        1.1296590404420801        2.5365349300174405       -0.1889363507048427       -0.8678253524624289
+        0.9868870139229412       -0.7810440445346530       -0.3367250529783994        0.9219570073558310
-        1.2552891160235062       -0.4627229951303617       -0.6195708371656106       -0.9704818863270434
-        1.3736186026479957       -0.5027296550564243        0.6498088234456957       -0.3320651923316272
+        1.1853144339877388        0.6263884650492724       -0.1992782174867985        0.9769593393400061
-        2.9633437964224263       -1.1686841233432950       -0.6831786678827546       -0.1970026432733326
-        2.5768177669287184       -1.0350169600243158        1.1710681924835629       -0.1946060569702309
+        5.1355590773350333       -0.1986291275839614        0.7383616244752174        0.1283355164991325
+        2.9922794707821758       -3.7036935265104467        0.4125242587240652        0.1235072004109040
