21
s                      x[A]                      y[A]                      z[A]                      q[e]
N -1.8651036349905326 1.3085953611215499 0.8207296716209254 0.0707249461841811
O -1.5628109771943712 -0.1799010230370340 0.3899416004729745 -0.3496602100029151
N -1.5057695170090069 0.2162193070763142 0.0165721686299425 0.9824851761690530
N -3.0451975919804211 -0.6252928395854209 0.1232753086227824 0.1071394941056757
O -1.5884135079762265 0.1682204730375232 -0.1465965770321351 -0.8194842575378962
N -0.5056537920909809 -0.5971536452058428 -0.3396353874337351 0.3116552922920345
N -0.8558118694193495 -1.8435500834925347 -0.7491547126911657 0.0918298459672651
N -1.2936774150449089 -0.9034216087833715 -0.3386110960402930 0.5593901217632046
O -0.9840627794090172 -0.7310221127675836 -0.3240945736003854 -0.9963138680841535
N 0.7840294534347094 0.8684516905367554 -0.1632595888243444 0.9989733053171830
O 0.7630189342582040 0.9663745702614541 -0.1819901812165349 -0.8354521971080898
N 0.6096353061040184 1.7292981274599772 -0.1102258915811666 0.2899344186932475
O 0.5977611156306786 1.3422798602694734 -0.0999519793443838 -0.8678253524624289
N 0.5222964787246129 -0.4133070481097184 -0.1782298376832278 0.9219570073558310
O 0.6642188807581655 -0.2448755352686740 -0.3278314558117845 -0.9704818863270434
O 0.7268481935457011 -0.2660429056514748 0.3439081027610889 -0.3320651923316272
N 0.6272979430825564 0.3314814115495440 -0.1054921606436712 0.9769593393400061
O 1.5680970931086737 -0.6184484540045332 -0.3614839691136109 -0.1970026432733326
O 1.3635630853377694 -0.5477127724259279 0.6197438061004692 -0.1946060569702309
N 2.7176434779074348 -0.1051010612237852 0.3906900078595509 0.1283355164991325
N 1.5834688407722912 -1.9599085692118594 0.2182723870074674 0.1235072004109040
