13

C  1.68353  1.26746 -0.02398
C  1.54943 -0.22686 -0.04473
H  1.32825  1.70108 -0.96481
H  2.73243  1.52465  0.12555
H  1.08175  1.70453  0.77938
C  0.18908 -0.89274 -0.26531
O  2.52471 -0.97520  0.07312
C -1.04016 -0.07661 -0.00147
H  0.14828 -1.78612  0.36322
H  0.14434 -1.22986 -1.30746
F -1.07629  0.43731  1.29339
F -2.18999 -0.84176 -0.15906
F -1.16971  1.01110 -0.86410
