25
s                      x[A]                      y[A]                      z[A]                      q[e]
N 1.7955566356891905 1.1708172132111283 0.7284469696781779 0.1158659338886357
O 1.8387711686165820 -0.1393150052632081 -0.4078720619615651 -0.2341991647481463
N 3.3207714729139965 -0.5745022424915303 0.1043644682224564 0.0569852111266852
N 2.0530560205409256 -0.4704958402634600 0.0638055462834859 0.3189271149812888
O 1.7844376140817204 -0.4437479134335383 0.3842264513678458 -0.2877498234141676
N 1.2882303041077372 -0.7756315413793389 -0.2341354976937847 0.5692545008206258
O 0.7869129938689347 -0.4921728836595304 -0.6510093166026255 -0.2058946535748549
O 1.0119205504192093 -0.6480137082466435 -0.1350276005760694 -0.9992971180892700
N 0.6019531035077956 -0.3747871951260301 -0.2751319464267168 0.6691943173322236
N 0.8709805436077627 -2.1165497841728556 -0.8196703600362851 0.0628076875181509
N -0.5612137835335070 1.3125402787144114 -0.1054260988623498 0.7576134719858190
O -0.5241024342005474 1.0688198096258312 -0.1547834661349812 -0.9235083265987739
N -0.5664183464620246 0.6415707573356171 -0.0980978332434334 0.9955526175656415
O -0.5430072988017088 1.1727560602499416 -0.0909682665468079 -0.9936641819349231
O -0.4084059071279615 -0.2164698213345382 -0.0328728562288133 -0.9934394819660318
N -0.4487246309618065 0.1304319493763496 -0.1406024279201631 0.8475065253219278
N -0.3719608741879019 -0.4582881179737495 -0.0926204681590126 0.9207393412409772
O -0.6525783588219567 -0.3192046687075457 -0.2517238628630547 -0.6738758902636315
N -2.8020121822545225 -0.1307130912820194 0.3703809182968545 0.1207489421105395
N -1.0511493835564403 -0.7285121340044982 0.0100697907330274 0.4308753055723465
O -1.2606559052921236 -0.4886816013360676 0.2501575530562142 -0.7095764258838037
N -1.3649307842797178 -0.2959026121631350 0.1158952489197364 0.9977500474782615
O -1.3588721252484353 -0.4959465865067285 0.0208651942865791 -0.9963537733476465
O -1.5948771598055027 -1.8162010383122456 0.5740054776631023 -0.1586318904925156
N -1.6171329668233672 -1.8507489785052211 0.3998882926601048 0.3123697133706422
