25
s                      x[A]                      y[A]                      z[A]                      q[e]
N 0.1021485603548416 -0.0317306008725445 0.2128241052808899 0.1158659338886357
O -0.2100845208904834 0.4925845123211887 0.3514924916840563 -0.2341991647481463
N -0.0979671156095424 -0.0210690129660435 -0.4079636467615675 0.0569852111266852
N -0.4633253862081884 -0.0342721531602209 0.1607842655205693 0.3189271149812888
O -0.2093131625401514 -0.3526858668638712 0.2589237246903184 -0.2877498234141676
N -0.0154230397809304 0.0688578828779701 -0.4739390571319253 0.5692545008206258
O -0.1250169206441299 -0.4011885544107381 0.0480735530055690 -0.2058946535748549
O -0.0288791958121420 0.1355842992476176 -0.1611735158532812 -0.9992971180892700
N -0.1446767437478785 -0.0487991609774691 0.3024523356831100 0.6691943173322236
N 0.0370927485243854 -0.0971942277019379 0.5121253335733811 0.0628076875181509
N -0.0079254980110623 0.0076336722981761 -0.0143284131766412 0.7576134719858190
O -0.0426611107431878 -0.0412566385413408 -0.2584927916602668 -0.9235083265987739
N 0.0206178725665761 0.0019421303772983 -0.6847266320869969 0.9955526175656415
O -0.0195148296165364 0.0216495949438585 -0.1548608793138465 -0.9936641819349231
O -0.0993002882081930 0.0703213838664940 -0.1361326073844649 -0.9934394819660318
N -0.0842337717361655 -0.0351568512085388 0.2134663637776298 0.8475065253219278
N -0.1347215390262839 0.0110744055357315 -0.3782260535906961 0.9207393412409772
O 0.1192886976714636 -0.1787280555735538 -0.2270371182875747 -0.6738758902636315
N -0.0337249181682632 0.0139969874833709 0.2389118531201828 0.1207489421105395
N 0.3121571439049672 0.0528147177955642 -0.5313915029916628 0.4308753055723465
O 0.3903842712665960 -0.1532060516468290 -0.1989915033372188 -0.7095764258838037
N 0.5286547414861911 -0.0109791306008971 -0.0355407910062611 0.9977500474782615
O 0.3699954439829340 0.0909883542111115 -0.1517942626142274 -0.9963537733476465
O -0.0188171770360466 -0.3375406527623890 -0.0109717545369206 -0.1586318904925156
N -0.0061502502026977 -0.1609272663564134 -0.0365243657102241 0.3123697133706422
