25
s                      x[A]                      y[A]                      z[A]                      q[e]
N        1.7919254548523855        1.1747847902029140        0.7333848628471927        0.1158659338886357
O        1.8401363450359209       -0.1358485052958671       -0.4101249683586020       -0.2341991647481463
N        3.3195635893551771       -0.5750411853893260        0.1030981966374624        0.0569852111266852
N        2.0492469378645044       -0.4698391844933522        0.0621416569820026        0.3189271149812888
O        1.7867406851595669       -0.4450652952633380        0.3856951239504089       -0.2877498234141676
N        1.2842211061263542       -0.7778128029537527       -0.2353393534479031        0.5692545008206258
O        0.7884227200286358       -0.4870789614239053       -0.6531325337431388       -0.2058946535748549
O        1.0122018383953151       -0.6413120963154579       -0.1343282760688733       -0.9992971180892700
N        0.5982862225961819       -0.3759882723295804       -0.2712417536629650        0.6691943173322236
N        0.8706177675379009       -2.1181620768965641       -0.8226232981191155        0.0628076875181509
N       -0.5547160208586546        1.3061722665566264       -0.1068901935424925        0.7576134719858190
O       -0.5215181237682552        1.0643614757596185       -0.1532880405317890       -0.9235083265987739
N       -0.5629843696433758        0.6419033895969813       -0.0975647029748623        0.9955526175656415
O       -0.5409549906895025        1.1680821133034915       -0.0905954426261364       -0.9936641819349231
O       -0.4056653511102390       -0.2150000999004683       -0.0346362859097371       -0.9934394819660318
N       -0.4479359145799440        0.1330250793296696       -0.1382260021115538        0.8475065253219278
N       -0.3714435420450070       -0.4561369383943727       -0.0918852904094892        0.9207393412409772
O       -0.6501520892577204       -0.3175919156086698       -0.2510230515956235       -0.6738758902636315
N       -2.8036062160516302       -0.1294653119178429        0.3708455587908748        0.1207489421105395
N       -1.0493942221986461       -0.7281997112010402        0.0106634389310044        0.4308753055723465
O       -1.2571849220314883       -0.4884276820489578        0.2493481822552413       -0.7095764258838037
N       -1.3626826372830581       -0.2941364332428503        0.1150416893530768        0.9977500474782615
O       -1.3540689070734688       -0.4960512949016762        0.0214416195674175       -0.9963537733476465
O       -1.5944913392842992       -1.8118948396293886        0.5732073827431050       -0.1586318904925156
N       -1.6146537946263797       -1.8511533356694965        0.3990031847123947        0.3123697133706422

        RMSE         4.974563446E-01 kcal/mol

Coordinates in bohr
s                   x[bohr]                   y[bohr]                   z[bohr]                      q[e]
+        3.3862483469074549        2.2200215098369402        1.3858965353376462        0.1158659338886357
-        3.4773537256188600       -0.2567164695619962       -0.7750238674098152       -0.2341991647481463
+        6.2730660399230400       -1.0866703512444478        0.1948273556734011        0.0569852111266852
+        3.8725154759970084       -0.8878673817008882        0.1174307126781291        0.3189271149812888
-        3.3764505521644534       -0.8410515159937320        0.7288581521907830       -0.2877498234141676
+        2.4268261751113216       -1.4698531744572882       -0.4447269245588564        0.5692545008206258
-        1.4899030119426360       -0.9204458385636195       -1.2342416124008759       -0.2058946535748549
-        1.9127842582520695       -1.2119042229794479       -0.2538436526750615       -0.9992971180892700
+        1.1305971053414825       -0.7105148610869607       -0.5125726282119016        0.6691943173322236
+        1.6452291406041415       -4.0027462146654500       -1.5545327378659761        0.0628076875181509
+       -1.0482613568266090        2.4683078564605232       -0.2019931912924918        0.7576134719858190
-       -0.9855264233846212        2.0113516876738000       -0.2896724149131601       -0.9235083265987739
+       -1.0638862715394943        1.2130216053413503       -0.1843705681341304        0.9955526175656415
-       -1.0222567786027490        2.2073552861895989       -0.1712005747780258       -0.9936641819349231
-       -0.7665964121860414       -0.4062913057579580       -0.0654530943724571       -0.9934394819660318
+       -0.8464762003125662        0.2513809677503767       -0.2612092874077922        0.8475065253219278
+       -0.7019265655350430       -0.8619738892701940       -0.1736380338320914        0.9207393412409772
-       -1.2286093885913041       -0.6001617401599012       -0.4743648186923982       -0.6738758902636315
+       -5.2980479119687294       -0.2446539822716944        0.7007965409571231        0.1207489421105395
+       -1.9830676775932787       -1.3760980188074512        0.0201509791351432        0.4308753055723465
-       -2.3757351916945662       -0.9229945511647251        0.4711997743431495       -0.7095764258838037
+       -2.5750969803815682       -0.5558373023479966        0.2173972858873128        0.9977500474782615
-       -2.5588193893668620       -0.9374010915428831        0.0405187886686767       -0.9963537733476465
-       -3.0131519406617819       -3.4239850150298774        1.0832049664749501       -0.1586318904925156
+       -3.0512534592750882       -3.4981728206430520        0.7540067422918877        0.3123697133706422
