25
s                      x[A]                      y[A]                      z[A]                      q[e]
N -2.0256393415053262 1.4016925314601820 -0.2549000024150793 0.1158659338886357
O -1.8528625883467709 -0.1467723097178190 0.4323483604692308 -0.2341991647481463
N -3.3467163128864712 -0.5638893211751191 0.0289123139491984 0.0569852111266852
N -2.1513383397582890 -0.4326327717667804 -0.0186056532578785 0.3189271149812888
O -1.8954224104689132 -0.2931447350234274 -0.3365358251795908 -0.2877498234141676
N -1.3695312319228854 -0.7730211665978218 0.2085502342481049 0.5692545008206258
O -0.7755848315544176 -0.6770244861383561 -0.4409680837410909 -0.2058946535748549
O -1.0668010940321968 -0.7426875200830478 0.2311898022720199 -0.9992971180892700
N -0.5616449192713169 -0.6323259748525057 0.0390055334150061 0.6691943173322236
N -0.8226552219787489 -2.0215310883977469 0.2472335491967630 0.0628076875181509
N 1.7338182596427154 -1.0851704579466370 -0.0612319959187479 0.7576134719858190
O 1.4633010693204516 -0.8536092967298416 -0.1270178122373086 -0.9235083265987739
N 1.2122802025523951 -0.5160546288553278 -0.0378754846558415 0.9955526175656415
O 1.6026505864218106 -0.9386922044131827 -0.0085172721766172 -0.9936641819349231
O 0.3526901698261109 0.1141409199393919 0.1366002341076194 -0.9934394819660318
N 0.6572836436662081 -0.1684076809469557 -0.0459279086046866 0.8475065253219278
N 0.1224498860829308 0.2766799918824997 0.0623932345723599 0.9207393412409772
O 0.3981312704813791 0.3357301803623147 -0.2322050494622338 -0.6738758902636315
N 2.0821583814213200 1.7271057264769198 -0.0544509670335008 0.1207489421105395
N 0.4309490480087167 0.9577049843570996 -0.0309702136804537 0.4308753055723465
O 0.8198566320571224 0.9594819963239967 0.2288790960149628 -0.7095764258838037
N 1.0544648534434693 0.9246852110291903 0.0126519026138118 0.9977500474782615
O 0.8751241908143078 1.0367981136578197 -0.1097215221806428 -0.9963537733476465
O 0.0562774236795514 2.2379455147110696 0.4813932602697020 -0.1586318904925156
N 0.0781430031494271 2.2059142104664815 0.3122228243170742 0.3123697133706422
