7
s                      x[A]                      y[A]                      z[A]                      q[e]
O       -0.0000055686367517       -0.0095946647603766        0.3804257982297327       -0.1445824341285902
O        0.0000073450898138        0.0063548999985974       -0.1989181212558903       -0.9986006291109735
O        0.0000693998544273        0.0073503386509445       -0.2204550397303200       -0.2244205776295459
N       -0.0000002379172764        0.5487369372198064       -0.1494318726019886        0.0232696759768248
N        0.0000115301913645        0.6394055478630865       -0.4496574892741705        0.6896083235798782
O       -0.0000020935546672       -0.9739046633306412       -0.6350470100005103       -0.3274628486340701
N        0.0000119944153659       -0.7797161852556792       -0.5214273761499056        0.9821884899464766

        RMSE         7.261026769E-01 kcal/mol

Coordinates in bohr
s                   x[bohr]                   y[bohr]                   z[bohr]                      q[e]
-       -0.0000105231983528       -0.0181312886626932        0.7189005697128742       -0.1445824341285902
-        0.0000138802081150        0.0120090205520215       -0.3759007705642440       -0.9986006291109735
-        0.0001311467180142        0.0138901269796522       -0.4165996480672292       -0.2244205776295459
+       -0.0000004495984928        1.0369625262679802       -0.2823853136320638        0.0232696759768248
+        0.0000217889038531        1.2083013685595503       -0.8497295049891731        0.6896083235798782
-       -0.0000039562449496       -1.8404130860011232       -1.2000649256918430       -0.3274628486340701
+        0.0000226661600766       -1.4734500457199728       -0.9853549352394027        0.9821884899464766
