11

C         1.714554       -0.642816        0.148149
C         0.497604       0.186059        -0.122729
H         1.616754       -1.073077        1.150728
H         2.609320       -0.021788        0.107430
H         1.791484       -1.470003        -0.560875
O         -0.609395       -0.591431        -0.372091
O         0.430745       1.409258        -0.018483
C         -1.883373       -0.165500        0.207964
H         -1.785027       -0.114185        1.295004
H         -2.593754       -0.936350        -0.079989
H         -2.182291       0.806335        -0.188003
