25
s                      x[A]                      y[A]                      z[A]                      q[e]
N -1.9344451605950153 1.2972676512930565 0.0035282380345999 0.1158659338886357
O -1.7773007391099109 -0.3368150823280272 0.4400703108677241 -0.2341991647481463
N -3.2848059051214675 -0.6804990287940953 0.0061296808020711 0.0569852111266852
N -2.0902950367996409 -0.5452544949557236 -0.0325329928988711 0.3189271149812888
O -1.8388274080558691 -0.3774798402492947 -0.3395280978363608 -0.2877498234141676
N -1.2784271604301074 -0.9727701787790227 -0.1148162856651573 0.5692545008206258
O -0.8263544201907049 -0.5374702157635889 0.4971156854047050 -0.2058946535748549
O -1.0758062403296180 -0.7520103486377467 -0.1671362247274175 -0.9992971180892700
N -0.6544898279115179 -0.4296667097743919 0.0182370977944112 0.6691943173322236
N -0.7586639685373651 -2.1670762209312970 -0.0207412755565640 0.0628076875181509
N 0.5330342222448116 1.6299759235987499 -0.0046468534354991 0.7576134719858190
O 0.5195640883816571 1.2758355150533622 0.0753568821942226 -0.9235083265987739
N 0.6038958834393428 0.8597052715431913 0.0099074433199070 0.9955526175656415
O 0.5485783726646100 1.4302520130727348 -0.0517371145923424 -0.9936641819349231
O 0.4826717786193281 -0.2017936428924513 -0.1161544117709010 -0.9934394819660318
N 0.4878435687662234 0.2194234044088136 0.0526707563397705 0.8475065253219278
N 0.4557415006982692 -0.4828675132905714 -0.0198766001519674 0.9207393412409772
O 0.6842652915624211 -0.2986265799815917 0.2567295853994122 -0.6738758902636315
N 2.8512194445064911 -0.0221710028219493 0.0228366339790265 0.1207489421105395
N 1.1638180593307816 -0.7068364960398521 0.0756447904837851 0.4308753055723465
O 1.4232930223102405 -0.4378369556228012 -0.2119596836073474 -0.7095764258838037
N 1.5647301950440051 -0.2314404770536330 -0.0079216375874859 0.9977500474782615
O 1.5238768075990690 -0.4264959362290710 0.1261638011748079 -0.9963537733476465
O 1.8341583498144307 -1.8835953922429944 -0.3706990761797347 -0.1586318904925156
N 1.8277033846076951 -1.8386693423590648 -0.2016846553538394 0.3123697133706422
