30
s                      x[A]                      y[A]                      z[A]                      q[e]
N       -1.9728581312384681        1.6930147428527522       -0.3111744436476372        0.2137068255539760
N       -1.6223096433816477        0.9955109542951786       -0.0013340261720323        0.4524136045707061
O       -1.5153124869622767        1.2482702209717158        0.4728177597487507       -0.5303393512711568
N       -1.2649464056220248        1.6726767866120849        0.9116655978271623        0.2065219334641430
N       -3.3198376034098573        1.2831650291041194        0.2910235347451272        0.0640972179527254
N       -1.6510345899598911        1.7993199498888661       -1.0222963918895775        0.2729192555687945
O       -1.8360960109152618        1.5798888832133136       -0.6056524944741323       -0.5760168259183410
O       -2.5330555135436450       -1.0335903040498575        0.2615351174671587       -0.7855321009151053
O       -2.1533786130365340       -1.3968550827449639        0.1078115357175146       -0.7445427033607991
N       -2.3521162795157893       -1.2304893387487728        0.1655647466691711        0.9977538426035523
N       -1.7886842864565196        0.0512833613885759       -0.1127597874563361        0.2084365764815679
N       -1.3209491489972345       -0.5784886273840535       -0.2127221977780693        0.3300899125146088
N        0.1202370337420521       -0.4273796167790902       -0.4947674992708798        0.6266498413516267
O       -0.0727446624530251       -0.0308733261301462       -0.6395988100072300       -0.5811225412727979
N       -0.0764651320912582       -0.1843008423236263       -1.9014893324353315        0.5003074335780895
O       -0.0851376758821069       -0.3038170419086648       -1.6402472956799425       -0.5967490130385100
N       -0.0458015996213386       -1.4664735321619822       -0.7726754846453053        0.9708061175491041
O        0.0182026405615177       -1.6095240504934252       -0.3786473346025122       -0.1568654630532827
O       -0.0565689254678309       -1.4591431400588220       -0.8101040366456088       -0.7813807259506527
N        0.6563357564246198       -0.1595099775816140        0.3741697932070874        0.1400529194232831
N        0.7567727753364176        0.3771288847301417       -0.0338189464231300        0.1778327620465852
N        1.1014818146175249        0.8586359556753653       -0.0795468166378858        0.7120624373414439
O        1.1360238905860731        1.0196472105440852       -0.0760744093356151       -0.9970019554920370
N        1.7833000372998549       -0.3432211674646234       -0.3472015775935011        0.9931708722557875
N        2.4441607934542655       -0.6738618566877356       -0.5923930705428231        0.8506195801821621
O        2.1741505615409356       -0.6256184062623708       -0.5461341653499036       -0.8089940633040810
O        2.3297751922563252       -0.5681757520273228       -0.4788664764951173       -0.9883399134133223
N        0.9920886292121706       -0.3386754670720367        1.7946372029641242        0.2529889584625400
N        1.0877171853513976       -0.1388577643980643        0.9751973384496712        0.5419198115726583
O        1.0051951895546520       -0.3072415717389362        1.3896607551511218       -0.9654652454832693

        RMSE         1.048540644E+00 kcal/mol

Coordinates in bohr
s                   x[bohr]                   y[bohr]                   z[bohr]                      q[e]
+       -3.7281615524232419        3.1993341903541128       -0.5880344757357449        0.2137068255539760
+       -3.0657209166804722        1.8812430585110529       -0.0025209441093339        0.4524136045707061
-       -2.8635255948450888        2.3588888482012673        0.8934960731776569       -0.5303393512711568
+       -2.3904022700079151        3.1609010231077055        1.7227982978951180        0.2065219334641430
+       -6.2735838514409119        2.4248304787719088        0.5499547767309508        0.0640972179527254
+       -3.1200031986817591        3.4002219173624604       -1.9318601997150089        0.2729192555687945
-       -3.4697186006754719        2.9855572979285903       -1.1445173417564707       -0.5760168259183410
-       -4.7867811811784211       -1.9532026005829159        0.4942297442023718       -0.7855321009151053
-       -4.0692958230572813       -2.6396735433417149        0.2037342756711171       -0.7445427033607991
+       -4.4448555835156540       -2.3252878505308834        0.3128720272355395        0.9977538426035523
+       -3.3801234263127786        0.0969115078172872       -0.2130851162573102        0.2084365764815679
+       -2.4962321172613593       -1.0931850724478847       -0.4019866946060247        0.3300899125146088
+        0.2272150639099104       -0.8076304273156015       -0.9349750693996184        0.6266498413516267
-       -0.1374674891250927       -0.0583421309679171       -1.2086665810824002       -0.5811225412727979
+       -0.1444981577994344       -0.3482781166828404       -3.5932940687824111        0.5003074335780895
-       -0.1608868903751782       -0.5741310014541197       -3.0996181668579386       -0.5967490130385100
+       -0.0865524793922029       -2.7712333460189185       -1.4601450498350224        0.9708061175491041
-        0.0343980054214183       -3.0415596477701303       -0.7155397605333392       -0.1568654630532827
-       -0.1068997763456367       -2.7573809125517266       -1.5308747623880528       -0.7813807259506527
+        1.2402948259877298       -0.3014301719071684        0.7070784335805860        0.1400529194232831
+        1.4300932845884560        0.7126703061393225       -0.0639085465912474        0.1778327620465852
+        2.0814989617994333        1.6225867976971875       -0.1503216975976163        0.7120624373414439
-        2.1467740251847478        1.9268539725153566       -0.1437597988002848       -0.9970019554920370
+        3.3699486700154551       -0.6485940069680352       -0.6561158919786123        0.9931708722557875
+        4.6187945062102598       -1.2734143555323327       -1.1194606619449550        0.8506195801821621
-        4.1085491168227133       -1.1822474468812914       -1.0320440002668181       -0.8089940633040810
-        4.4026370472503125       -1.0736965624576806       -0.9049264912387601       -0.9883399134133223
+        1.8747758013918829       -0.6400038781776601        3.3913728081598684        0.2529889584625400
+        2.0554875822679910       -0.2624031451056900        1.8428558879452834        0.5419198115726583
-        1.8995436108859598       -0.5806024249417933        2.6260782345325291       -0.9654652454832693
