21
s                      x[A]                      y[A]                      z[A]                      q[e]
N       -1.9231591075756467        1.3688056696281696        0.6027736034502413        0.0707249461841811
O       -1.5815121819767639       -0.1567607021431760        0.3693738419407680       -0.3496602100029151
N       -1.5166095279308707        0.1919010396317871       -0.0458508122104479        0.9824851761690530
N       -3.0448815049826510       -0.6666268226916999        0.1158930168771794        0.1071394941056757
O       -1.5915544828415913        0.1235674533380229       -0.2055293689057651       -0.8194842575378962
N       -0.4933386334001417       -0.6258255159553553       -0.2870434237418621        0.3116552922920345
N       -0.8003768434053603       -1.9356858912204538       -0.5349934271548312        0.0918298459672651
N       -1.2708959425239830       -0.9563262168360753       -0.2610898979621497        0.5593901217632046
O       -0.9657740634404858       -0.7739483617873015       -0.2569845218138820       -0.9963138680841535
N        0.7541543379389256        0.8802259741197405       -0.1481485611115222        0.9989733053171830
O        0.7302246800629710        0.9779266354682437       -0.1672721554637430       -0.8354521971080898
N        0.5572830364630637        1.7355966176646307       -0.0865290027320791        0.2899344186932475
O        0.5570122655651378        1.3483898376225001       -0.0784447875796952       -0.8678253524624289
N        0.5294055710496275       -0.4116135461513858       -0.1591482021957294        0.9219570073558310
O        0.6618317141194672       -0.2382547042083009       -0.3141423363072419       -0.9704818863270434
O        0.7473005771617484       -0.2595886123367045        0.3546945877687903       -0.3320651923316272
N        0.6151736292504958        0.3354975364903661       -0.0872848637573347        0.9769593393400061
O        1.5778362178285883       -0.5828136263869316       -0.3990730124390724       -0.1970026432733326
O        1.4183641381328009       -0.5258460888850303        0.5912789648280670       -0.1946060569702309
N        2.7461986975748762       -0.0370448113137276        0.3033046892310493        0.1283355164991325
N        1.6658464091373111       -1.9295242133576940        0.1690954512291012        0.1235072004109040

        RMSE         4.089897909E-01 kcal/mol

Coordinates in bohr
s                   x[bohr]                   y[bohr]                   z[bohr]                      q[e]
+       -3.6342440089978614        2.5866678345711489        1.1390770261762779        0.0707249461841811
-       -2.9886248880113055       -0.2962347942850727        0.6980153991761997       -0.3496602100029151
+       -2.8659766470492301        0.3626404080947062       -0.0866454777075442        0.9824851761690530
+       -5.7539921288890659       -1.2597421227714487        0.2190060617509309        0.1071394941056757
-       -3.0076020863152779        0.2335086448291530       -0.3883942179700842       -0.8194842575378962
+       -0.9322749042339097       -1.1826388274789599       -0.5424334569858587        0.3116552922920345
+       -1.5124930311945783       -3.6579161993194109       -1.0109910562427040        0.0918298459672651
+       -2.4016452653259210       -1.8071946364153795       -0.4933884012721929        0.5593901217632046
-       -1.8250484789730519       -1.4625504390247508       -0.4856303647099801       -0.9963138680841535
+        1.4251451550305394        1.6633860196006396       -0.2799602063814292        0.9989733053171830
-        1.3799246553690805        1.8480135118254140       -0.3160985622414785       -0.8354521971080898
+        1.0531123132787188        3.2798022716570943       -0.1635161170726216        0.2899344186932475
-        1.0526006304388948        2.5480875034570771       -0.1482391644953398       -0.8678253524624289
+        1.0004315385754015       -0.7778368717546154       -0.3007465155089147        0.9219570073558310
-        1.2506806808280937       -0.4502361390556535       -0.5936429800321542       -0.9704818863270434
-        1.4121934242322696       -0.4905513826040149        0.6702756290651777       -0.3320651923316272
+        1.1625096788873699        0.6339984597325858       -0.1649444873992625        0.9769593393400061
-        2.9816783225242518       -1.1013581360562024       -0.7541386975712719       -0.1970026432733326
-        2.6803197672420298       -0.9937050921358609        1.1173553072692584       -0.1946060569702309
+        5.1895634245055051       -0.0700045477522068        0.5731627952137813        0.1283355164991325
+        3.1479934803468868       -3.6462723156854988        0.3195440918837125        0.1235072004109040
