21
s                      x[A]                      y[A]                      z[A]                      q[e]
N -1.8634446949887677 1.4221196662678803 -0.5089529561931825 0.0707249461841811
O -1.6241872427791457 0.0582617699663103 0.2637660713812247 -0.3496602100029151
N -1.4882211446521514 0.1009721679682073 -0.2637679795732767 0.9824851761690530
N -3.0761263507154890 -0.5231337973864703 0.2008991724741942 0.1071394941056757
O -1.5521700397962013 -0.0469256150528329 -0.3623075587654698 -0.8194842575378962
N -0.5524110143814374 -0.5536243536408127 -0.0769711641499619 0.3116552922920345
N -0.9287493501863557 -1.8787766815437044 0.1147262194181434 0.0918298459672651
N -1.3404085867798181 -0.8285969286477152 0.0557891746908795 0.5593901217632046
O -1.0266044098613332 -0.6678958922528797 0.0160323458083713 -0.9963138680841535
N 0.7853245312037809 0.8619271684570926 -0.1585979388436249 0.9989733053171830
O 0.7648717412186256 0.9598139840560885 -0.1781489880420264 -0.8354521971080898
N 0.6484268362475883 1.7298599346727510 -0.1171110033295070 0.2899344186932475
O 0.6256116123697604 1.3437458674478191 -0.0887213166479218 -0.8678253524624289
N 0.4854842434340925 -0.4055195403057039 -0.0801121725632196 0.9219570073558310
O 0.6081305546878900 -0.2483402429079045 -0.2557292010283968 -0.9704818863270434
O 0.7708543134710873 -0.2470553381987278 0.3981432079036869 -0.3320651923316272
N 0.6229634174343242 0.3364758586959471 -0.0557544649447353 0.9769593393400061
O 1.4716709477007544 -0.6632241815122979 -0.4677369393653722 -0.1970026432733326
O 1.4757833297342415 -0.5456772501816336 0.5296104995220002 -0.1946060569702309
N 2.7664180475135982 -0.1665789423402819 0.0084613820127616 0.1283355164991325
N 1.5653201731388482 -1.9797543236762956 0.1588165484979887 0.1235072004109040
