21
s                      x[A]                      y[A]                      z[A]                      q[e]
N 0.3161830687126638 1.4719273549283849 -0.1517939840072930 0.0707249461841811
O -0.2537803219479500 0.2092754764684711 0.6197623343816041 -0.3496602100029151
N 0.2391386990465129 0.1865238020829163 0.3849936548088372 0.9824851761690530
N 0.1980902435338333 0.3419475078084425 -0.1980893209504504 0.1071394941056757
O 0.2585002517363433 0.0284266371977267 0.2834866067148158 -0.8194842575378962
N 0.4223490669804656 0.4472120087675771 0.4765755250334996 0.3116552922920345
N 1.7089840037224742 0.3611924760400456 -0.0445562256341707 0.0918298459672651
N 0.6327065016517424 0.5405406977867033 -0.3365756934771127 0.5593901217632046
O 0.4975276535996834 0.4911180188965035 -0.0122879079481327 -0.9963138680841535
N 0.0426498403684304 0.1568447343697926 -0.3930848059114468 0.9989733053171830
O -0.0006864660198525 0.1819898934776150 -0.3043600949617334 -0.8354521971080898
N -0.3591562947685118 0.1611526132330052 0.3894129278357185 0.2899344186932475
O -0.2694942116213925 0.1379259140855604 0.0128072813673117 -0.8678253524624289
N 0.1356278229616192 0.1582022135795357 -0.3266418398688448 0.9219570073558310
O 0.2469870426774462 0.2930465344447664 -0.1266295322569256 -0.9704818863270434
O 0.2182032007980126 -0.3801468907412042 -0.1300795392613799 -0.3320651923316272
N 0.0274387136104618 0.1007038116747729 0.4183682565325627 0.9769593393400061
O 0.3168047474989404 -0.2947229062175785 0.2453076419244091 -0.1970026432733326
O 0.4782305345007933 0.6705724114592309 0.0201792972662869 -0.1946060569702309
N 0.5651796728186473 0.5027841462810424 0.3679408802193488 0.1283355164991325
N -0.3811935868659648 0.3265025553603371 0.1940928394697168 0.1235072004109040
