21
s                      x[A]                      y[A]                      z[A]                      q[e]
N 1.8231928541515030 1.0949222706039798 -1.3560539889754475 0.0707249461841811
O 1.6318211690602331 -0.1137298635789636 -0.3686586082980767 -0.3496602100029151
N 1.5244354708417673 0.3861404899784527 -0.1732719932121483 0.9824851761690530
N 3.1376768793719805 -0.2657226589698536 0.0778533665928291 0.1071394941056757
O 1.6027774715478347 0.4108074734924951 -0.0029408047485420 -0.8194842575378962
N 0.6813163206561474 -0.1635742452844082 0.2023068808898366 0.3116552922920345
N 1.0011818066289340 -1.2917341507265698 1.3092550628117923 0.0918298459672651
N 1.4483516301021306 -0.3973718466880559 0.4702315178397401 0.5593901217632046
O 1.1120884531277648 -0.3466900724533770 0.3694746294027447 -0.9963138680841535
N -1.1783315619650931 -0.5756760089120007 -0.2448030642649822 0.9989733053171830
O -1.2099522331006058 -0.6679467557205223 -0.2742648137856045 -0.8354521971080898
N -1.5352869577967720 -1.3780029946162529 -0.3008606115882878 0.2899344186932475
O -1.3165726739639276 -1.0690676096440421 -0.2187233636911548 -0.8678253524624289
N -0.2625078843347807 0.3244949621155423 0.0432597551195866 0.9219570073558310
O -0.4154197907858987 0.2672387857202533 -0.1670640347452065 -0.9704818863270434
O -0.6712187275350517 0.3295341091922539 0.4544716508763109 -0.3320651923316272
N -0.7767718403366213 -0.2213058716654434 -0.0498507136610328 0.9769593393400061
O -0.8552392389847799 1.1012332924199757 -0.4171607878947643 -0.1970026432733326
O -1.1096523250889587 0.9444806927256335 0.5421928088070140 -0.1946060569702309
N -2.2801258087540179 1.3744437527659006 -0.1882380652153154 0.1283355164991325
N -0.3438424561767651 2.2082650275266089 0.3900695909395288 0.1235072004109040
