21
s                      x[A]                      y[A]                      z[A]                      q[e]
N 0.0271984565191017 -0.0450243346213318 0.3788074081983308 0.0707249461841811
O 0.1028048081611545 0.2923703842674950 0.3139069444516582 -0.3496602100029151
N 0.3753596305454912 -0.1822764355217218 0.3124058910728146 0.9824851761690530
N 0.0336457010611658 -0.0110070913387004 -0.1884913504090528 0.1071394941056757
O 0.2563743936134171 -0.3289978021751239 0.3210080346028980 -0.8194842575378962
N 0.1011331318646143 0.1261682519451059 0.2906848283010079 0.3116552922920345
N 0.0297640749502890 -0.0163093213716108 0.2435969480872994 0.0918298459672651
N 0.0909411480529779 0.0397428669405847 -0.5502758555222820 0.5593901217632046
O 0.0474153226095592 0.0585278311054001 -0.1987845403567869 -0.9963138680841535
N 0.2263186640735183 0.0842525704631267 -0.4262998675833644 0.9989733053171830
O 0.2005791463316105 0.0998850449867651 -0.3289609996468599 -0.8354521971080898
N 0.0344599067506492 0.0064671299408493 0.4289356775711891 0.2899344186932475
O 0.0348283587134312 -0.0024864713939498 0.0417106334445911 -0.8678253524624289
N 0.0011218927728882 0.0786092634955533 -0.3512905158974376 0.9219570073558310
O 0.1206948398162111 0.2419184635780347 -0.1782909986819022 -0.9704818863270434
O 0.2581489303297532 -0.4185797386499197 -0.1999453221352734 -0.3320651923316272
N 0.0923177418099372 0.0130189249724067 0.3959823597016033 0.9769593393400061
O 0.1996733732285260 -0.5144377957588983 -0.0956064304444769 -0.1970026432733326
O 0.2308439914601105 0.4896804246577977 -0.0748287649621872 -0.1946060569702309
N 0.0218175340267486 -0.0000566462349801 0.1847041146048674 0.1283355164991325
N 0.0371600737975823 0.0045553282255524 -0.1492128205201019 0.1235072004109040
