21
s                      x[A]                      y[A]                      z[A]                      q[e]
N 2.0564502996336684 1.4833951524261948 -1.0619333977080807 0.0690680479201058
O 1.8816953519822452 -0.2890221204471048 -0.3569678924612653 -0.3117950550350966
N 2.0364288855439483 -0.1882295393806140 -0.0218120315498531 0.5776243102962968
N 3.3852933616432717 -0.3109571764029435 0.0196932100444464 0.0604184539076988
O 1.9231980202512589 0.0255014220500509 0.2360246784292172 -0.3968494342195521
O 0.5920911832900767 -0.9283247887422015 0.2543788645581995 -0.9828651838991298
N 0.3739549539891356 -0.9234395509023670 0.2124040229570731 0.7759263489545838
N 1.1252455702836899 -1.0805375291911894 0.5816764963199226 0.9970342621901004
O 1.1515994217896748 -0.9476921937230771 0.8275482934830973 -0.3970377457969525
O 1.1494570610480983 -1.2298296011004191 0.3530196643328934 -0.3893757401670396
N -0.6047481589829258 1.7821568063449849 0.1086588441512122 0.1691966627363242
O -0.5841747623531572 1.3337180470653973 0.1081695946523381 -0.6800109224217911
O -0.6298369725087051 -0.3769065470070470 -0.3531514611191297 -0.9821368279659007
N -0.5934709873689846 -0.5528852038064298 -0.2326161274019675 0.8921713087406896
O -0.9313055173535278 -0.3417925799189974 0.2787349011847433 -0.3335771210350215
N -0.6237983561557112 0.2632130505662491 -0.0452710015171154 0.9988617281482304
N -2.9299893179153802 -0.0434194104190277 -0.3794633157304808 0.0655379221577991
N -1.6608941272527480 -0.4274160913383247 -0.1696346627135227 0.9908754307264420
O -1.4897312000081486 -0.4802451437261483 -0.5012789013909098 -0.6595771554465193
O -1.6906742080023063 -0.5142238856040975 0.1914133181515582 -0.5578053818499882
N -1.5209505771318350 -2.1190286122946089 -0.2758070342863569 0.0943160920587207
