21
s                      x[A]                      y[A]                      z[A]                      q[e]
N       -2.0940903595191744        1.5914364959553060       -0.2321802581826280        0.0690680479201058
O       -1.8668000243958032       -0.2314851952712804        0.3592314963263633       -0.3117950550350966
N       -1.9817179009367500       -0.3514508893961796        0.0258741900622670        0.5776243102962968
N       -3.3196410238118239       -0.5562661170792609        0.0054269656268117        0.0604184539076988
O       -1.8309737297933133       -0.3332158825152733       -0.3028276996760907       -0.3968494342195521
O       -0.9257168890096578       -0.1371587075565773        0.1337577181181945       -0.9828651838991298
N       -0.7633229153064468        0.0153792831578479        0.1313863393149579        0.7759263489545838
N       -0.9942344522346351       -1.3539394015210813        0.1836268773639454        0.9970342621901004
O       -0.9972421428879830       -1.4198832681763389       -0.1280353897016179       -0.3970377457969525
O       -1.0555865634154853       -1.3646211519713538        0.4171111663612380       -0.3893757401670396
N        1.7821540526097481       -1.2641723010126522       -0.1475489911791227        0.1691966627363242
O        1.4463381678100238       -0.9400589698713400       -0.0982854991069727       -0.6800109224217911
O        0.3652193970840661        0.4173984366622501       -0.3262250864340779       -0.9821368279659007
N        0.2195541495268182        0.4920946032245260       -0.2036904743554293        0.8921713087406896
O        0.5830687728851045        0.4848631904752106        0.3308921481222751       -0.3335771210350215
N        0.7870349878263486       -0.1182298521471848       -0.0800312917774219        0.9988617281482304
N        2.2882735824807572        1.6778663777579681       -0.0160134548305351        0.0655379221577991
N        1.0824200167174207        1.0692260727933445        0.0235903945593897        0.9908754307264420
O        0.9459763051453803        1.0853192243094416       -0.3152738446348454       -0.6595771554465193
O        1.0326944955654860        1.1221605496840459        0.3907380413841655       -0.5578053818499882
N       -0.1490092319132869        2.2528014850004703        0.0541663903392501        0.0943160920587207

        RMSE         4.777009681E+00 kcal/mol

Coordinates in bohr
s                   x[bohr]                   y[bohr]                   z[bohr]                      q[e]
+       -3.9572572614527601        3.0073791234138030       -0.4387570997032558        0.0690680479201058
-       -3.5277407771060600       -0.4374436211608455        0.6788491436952364       -0.3117950550350966
+       -3.7449040906876250       -0.6641459275073501        0.0488951329357272        0.5776243102962968
+       -6.2732123698387756       -1.0511906141516623        0.0102554787269477        0.0604184539076988
-       -3.4600388922173861       -0.6296867586065984       -0.5722614155902057       -0.3968494342195521
-       -1.7493513899390949       -0.2591923930036942        0.2527654544095760       -0.9828651838991298
+       -1.4424712552152257        0.0290626331741987        0.2482841979317429        0.7759263489545838
+       -1.8788308192180432       -2.5585746593411236        0.3470045074908883        0.9970342621901004
-       -1.8845145308229698       -2.6831905069732711       -0.2419518209023216       -0.3970377457969525
-       -1.9947695065684892       -2.5787602422326246        0.7882258682930178       -0.3893757401670396
+        3.3677830728071858       -2.3889394243037465       -0.2788271834161349        0.1691966627363242
-        2.7331830219574105       -1.7764539948368445       -0.1857326754161084       -0.6800109224217911
-        0.6901646361937164        0.7887687304859087       -0.6164760686142151       -0.9821368279659007
+        0.4148972123135029        0.9299240279101907       -0.3849192108963525        0.8921713087406896
-        1.1018402930596189        0.9162586383138408        0.6252955370155246       -0.3335771210350215
+        1.4872805781448348       -0.2234220404115514       -0.1512372229259324        0.9988617281482304
+        4.3242103710088653        3.1707079290765257       -0.0302610439521009        0.0655379221577991
+        2.0454773843094092        2.0205444437782565        0.0445793849087369        0.9908754307264420
-        1.7876361378972918        2.0509560926391766       -0.5957812208799997       -0.6595771554465193
-        1.9515097678865920        2.1205761076960585        0.7383878850138796       -0.5578053818499882
+       -0.2815866384809425        4.2571778216755805        0.1023596429458274        0.0943160920587207
