25
s                      x[A]                      y[A]                      z[A]                      q[e]
N        1.8385058927017421        1.1695310141079260       -0.8944260292376023        0.1158659338886357
O        1.7878097831940296       -0.4282057604121186       -0.4086089165669907       -0.2341991647481463
N        3.3723565197554759       -0.4237044630394519        0.0286717495954937        0.0569852111266852
N        2.1227579376503964       -0.3063316407672529        0.0909735063747712        0.3189271149812888
O        1.9257696678088920        0.0041954022186324        0.2532359669273117       -0.2877498234141676
N        1.3412336088948187       -0.6927623490852974        0.2386381252043187        0.5692545008206258
O        0.7289788342080721       -0.5924304444128937        0.6799324655718469       -0.2058946535748549
O        1.0633929144936842       -0.5551442866514449        0.1787919295219393       -0.9992971180892700
N        0.5495562732585908       -0.5494734427884984        0.2407139299108494        0.6691943173322236
N        0.9259131601289859       -1.7855238247877190        1.1146689197825821        0.0628076875181509
N       -1.4575250099299444       -1.0132163031871462       -0.1804263769838676        0.7576134719858190
O       -1.2673073194737507       -0.8366478375791295       -0.0913774733428233       -0.9235083265987739
N       -1.0193940793186662       -0.4772242201589919       -0.0631002281825373        0.9955526175656415
O       -1.3462828176426869       -0.8986566176675370       -0.1869191520576315       -0.9936641819349231
O       -0.3034214486670680        0.1002967020252729        0.0032541314264700       -0.9934394819660318
N       -0.5812539243589209       -0.1595645521140661        0.0714540082311610        0.8475065253219278
N       -0.1284406627490307        0.2621943268758021        0.1176020703284916        0.9207393412409772
O       -0.4362814083410316        0.2963222505732944        0.2711632830014749       -0.6738758902636315
N       -2.1645924065003483        1.6238147729461463       -0.1116178607147053        0.1207489421105395
N       -0.4817257165894335        0.9030908712413011        0.1939991551314998        0.4308753055723465
O       -0.7757983787742130        0.9146493127717495       -0.0872910193654941       -0.7095764258838037
N       -1.0017823921344664        0.8254401866311547        0.0060294007540517        0.9977500474782615
O       -0.8754363438362485        0.9259439198566695        0.1636594739510140       -0.9963537733476465
O       -0.1528012120039517        2.2054293436761996       -0.0038018134864098       -0.1586318904925156
N       -0.1632314524014443        2.1726927676722685        0.1562482580057220        0.3123697133706422

        RMSE         4.389137105E-01 kcal/mol

Coordinates in bohr
s                   x[bohr]                   y[bohr]                   z[bohr]                      q[e]
+        3.4742726172466489        2.2100933118929356       -1.6902202347398043        0.1158659338886357
-        3.3784708546508533       -0.8091916125223159       -0.7721589447316604       -0.2341991647481463
+        6.3728302197399609       -0.8006853932787330        0.0541817542731893        0.0569852111266852
+        4.0114311328009338       -0.5788829046122402        0.1719150117209094        0.3189271149812888
-        3.6391772528727064        0.0079281611793534        0.4785466226081154       -0.2877498234141676
+        2.5345641910706256       -1.3091311098000225        0.4509606997288772        0.5692545008206258
-        1.3775703479087846       -1.1195312883236368        1.2848861437380745       -0.2058946535748549
-        2.0095213721454575       -1.0490706618838848        0.3378677802386233       -0.9992971180892700
+        1.0385108469860003       -1.0383543200826828        0.4548834021141566        0.6691943173322236
+        1.7497222886009622       -3.3741510193287381        2.1064189789490015        0.0628076875181509
+       -2.7543230897727962       -1.9147013188725497       -0.3409564383081176        0.7576134719858190
-       -2.3948637505934771       -1.5810352764810787       -0.1726783986542595       -0.9235083265987739
+       -1.9263756238255132       -0.9018230765356854       -0.1192421497188910        0.9955526175656415
-       -2.5441058127543625       -1.6982148882219115       -0.3532260049917305       -0.9936641819349231
-       -0.5733834385704197        0.1895332981144172        0.0061494171722737       -0.9934394819660318
+       -1.0984107263859411       -0.3015333028269278        0.1350285061231037        0.8475065253219278
+       -0.2427176759679615        0.4954754694440328        0.2222357047076795        0.9207393412409772
-       -0.8244523753935822        0.5599678984628153        0.5124243401528016       -0.6738758902636315
+       -4.0904868215313392        3.0685651993407039       -0.2109271874602915        0.1207489421105395
+       -0.9103296719439460        1.7065944130471582        0.3666052717687413        0.4308753055723465
-       -1.4660464644574580        1.7284367019768234       -0.1649561198128195       -0.7095764258838037
+       -1.8930943584401398        1.5598558856796785        0.0113939161257865        0.9977500474782615
-       -1.6543349301226409        1.7497804160619777        0.3092715836039160       -0.9963537733476465
-       -0.2887524423254879        4.1676574485962252       -0.0071843862693865       -0.1586318904925156
+       -0.3084627400994352        4.1057942856635607        0.2952664152106882        0.3123697133706422
