25
s                      x[A]                      y[A]                      z[A]                      q[e]
N 0.1187299214497374 -0.0242681477862271 0.1974766720628179 0.1158659338886357
O -0.2015793104668248 0.4697878111388559 0.3264422649713310 -0.2341991647481463
N -0.0828068087730862 -0.0092083675061147 -0.4038625830499164 0.0569852111266852
N -0.4838185882160871 -0.0540704928630096 0.1679851295013713 0.3189271149812888
O -0.2023823899015003 -0.3250583831398545 0.2488225225342588 -0.2877498234141676
N -0.0345134931802442 0.0972876524634792 -0.5005776241485610 0.5692545008206258
O -0.1087245598910418 -0.4484886168892672 0.0367551558828166 -0.2058946535748549
O -0.0120005983595206 0.1070108194818026 -0.1860384785793885 -0.9992971180892700
N -0.1810939397522366 -0.0364132265614587 0.2800346009724922 0.6691943173322236
N 0.0271175212159213 -0.0910191207350715 0.4612840786457335 0.0628076875181509
N 0.0121735317928629 -0.0048400501605809 0.0723644919505277 0.7576134719858190
O -0.0125985987014252 -0.0507323617982481 -0.2014780106246211 -0.9235083265987739
N 0.0502084936679826 -0.0140153161656271 -0.6320281017349449 0.9955526175656415
O 0.0117779097328466 0.0276424416990984 -0.0873096083786104 -0.9936641819349231
O -0.0815907695703088 0.0803598205117954 -0.1314977207449763 -0.9934394819660318
N -0.0628409103162346 -0.0522388554309504 0.2324888465570870 0.8475065253219278
N -0.1070783128303283 0.0045058800145203 -0.3867265328017802 0.9207393412409772
O 0.1231550499217903 -0.1985140607162772 -0.2299872245232950 -0.6738758902636315
N -0.0376442154840365 0.0054474203673246 0.2277014913563295 0.1207489421105395
N 0.2944695417404148 0.0621612528265048 -0.5132274043608688 0.4308753055723465
O 0.3818392592252707 -0.1603670877686780 -0.1799651802720486 -0.7095764258838037
N 0.4953338863148713 -0.0151695029697364 0.0052125007762619 0.9977500474782615
O 0.3521249943979777 0.1044905002204117 -0.1215356323308284 -0.9963537733476465
O -0.0289751637439834 -0.3354202511331633 -0.0510781477595618 -0.1586318904925156
N -0.0013391705613868 -0.1774579708475179 -0.0483885393847111 0.3123697133706422
