25
s                      x[A]                      y[A]                      z[A]                      q[e]
N        1.6624815311175078        0.1212651665205800       -1.6397973104476615        0.1158659338886357
O        1.8196107456514841       -0.5300897560275529       -0.1036699683319647       -0.2341991647481463
N        3.3660892200449526       -0.1653005849754572        0.0262748963904205        0.0569852111266852
N        2.1546043474658187       -0.1446361682073770        0.1335148293394083        0.3189271149812888
O        1.8939989603448890        0.2502710258689740        0.0464138173679522       -0.2877498234141676
N        1.4165393985679398       -0.2247923193454656        0.7739368821179753        0.5692545008206258
O        1.0193220533435565       -0.0302413500872563        0.0199000323783552       -0.2058946535748549
O        1.1265253115585014       -0.1717038560230903        0.7158195294587766       -0.9992971180892700
N        0.7103008736991225        0.0225550491096013        0.4341973920802197        0.6691943173322236
N        1.1595942053932164       -0.3965056692773802        1.9608494229383691        0.0628076875181509
N       -1.0488720647191154        1.5054555779865928       -0.0563933890902752        0.7576134719858190
O       -0.8959296135676296        1.1977736033056230       -0.0910424662479826       -0.9235083265987739
N       -0.8522920535912872        0.7590881321666584       -0.0155798123108669        0.9955526175656415
O       -1.0025942726522556        1.3256328350912991        0.0046230958487527       -0.9936641819349231
O       -0.4469217057027676       -0.1834999686489030        0.2127208268347739       -0.9934394819660318
N       -0.5317046540425791        0.1987990318470727        0.0328197043786628        0.8475065253219278
N       -0.3046072278881735       -0.4283994655891184        0.1673266458651415        0.9207393412409772
O       -0.4981044787033598       -0.3377727979888028       -0.1683989294166529       -0.6738758902636315
N       -2.6149576992793491       -0.8079670144639527       -0.5022018160420447        0.1207489421105395
N       -0.8490361863119705       -0.8750776153448814       -0.0781409911227451        0.4308753055723465
O       -1.2438052558060884       -0.7125093258723467        0.1041512135184969       -0.7095764258838037
N       -1.3694327855681421       -0.5706915404780544       -0.1354495484087381        0.9977500474782615
O       -1.2497315018090729       -0.7345074950413792       -0.2299267483265067       -0.9963537733476465
O       -1.1820120964524174       -2.2116902876987075        0.2889746919934387       -0.1586318904925156
N       -1.1692068516841765       -2.1538023188035034        0.1244530164929066        0.3123697133706422

        RMSE         5.933064122E-01 kcal/mol

Coordinates in bohr
s                   x[bohr]                   y[bohr]                   z[bohr]                      q[e]
+        3.1416347824438859        0.2291579532819339       -3.0987678180084268        0.1158659338886357
-        3.4385659642214086       -1.0017244608028331       -0.1959078475822993       -0.2341991647481463
+        6.3609867397409108       -0.3123728339815833        0.0496523581526752        0.0569852111266852
+        4.0716121254311739       -0.2733227457475932        0.2523064611387231        0.3189271149812888
-        3.5791393169537020        0.4729436960297321        0.0877094032624476       -0.2877498234141676
+        2.6768715092141551       -0.4247959186693855        1.4625287455937133        0.5692545008206258
-        1.9262395144586366       -0.0571478693290046        0.0376056110828345       -0.2058946535748549
-        2.1288243122416195       -0.3244732625686833        1.3527028659311795       -0.9992971180892700
+        1.3422741179647530        0.0426228655633979        0.8205141554196471        0.6691943173322236
+        2.1913154648610718       -0.7492871221256068        3.7054683826155426        0.0628076875181509
+       -1.9820809429626065        2.8448987364374791       -0.1065680606670015        0.7576134719858190
-       -1.6930615973300858        2.2634640705503966       -0.1720453269949252       -0.9235083265987739
+       -1.6105985601915589        1.4344686748803190       -0.0294415783535746        0.9955526175656415
-       -1.8946285902653566        2.5050830012367569        0.0087363850058836       -0.9936641819349231
-       -0.8445596233006947       -0.3467646847765243        0.4019841038986629       -0.9934394819660318
+       -1.0047761757717779        0.3756757241971361        0.0620202527941617        0.8475065253219278
+       -0.5756242365435679       -0.8095576622559288        0.3162015341765880        0.9207393412409772
-       -0.9412810466132914       -0.6382980808284301       -0.3182278564177778       -0.6738758902636315
+       -4.9415538812952811       -1.5268363757406944       -0.9490238920270181        0.1207489421105395
+       -1.6044458627328109       -1.6536570315205583       -0.1476650723938197        0.4308753055723465
-       -2.3504512868785223       -1.3464474877333188        0.1968172691840401       -0.7095764258838037
+       -2.5878529119466060       -1.0784507136191530       -0.2559625503094572        0.9977500474782615
-       -2.3616502687762519       -1.3880180027242806       -0.4344985832541666       -0.9963537733476465
-       -2.2336791392733115       -4.1794889180855881        0.5460830250561303       -0.1586318904925156
+       -2.2094807336918842       -4.0700965109146301        0.2351821166586795        0.3123697133706422
