30
s                      x[A]                      y[A]                      z[A]                      q[e]
N 2.7861139127950847 1.0748460281704988 0.3629012848422296 0.2137068255539760
N 2.0362775477509958 0.7279428794127135 0.1022504753512158 0.4524136045707061
O 1.9996658074173839 1.1327503116438622 -0.1801335541668454 -0.5303393512711568
N 1.7263918113912951 1.7692105212111806 -0.3613506449992808 0.2065219334641430
N 3.5021312718261663 0.4798108427209675 -0.8391860767281771 0.0640972179527254
N 2.8456637590458453 0.9964890139869366 1.1358371630992006 0.2729192555687945
O 2.7289143413776888 0.9034837218373627 0.7003719519084532 -0.5760168259183410
O 1.9747912523024735 -1.4401339405358784 -0.6133521627508335 -0.7855321009151053
O 1.4575213709920312 -1.6523556156514159 -0.4083307305502131 -0.7445427033607991
N 1.7388859089222219 -1.5657963204369736 -0.5305619529490737 0.9977538426035523
N 1.7823903014370919 -0.1898909785548974 -0.0345740530970251 0.2084365764815679
N 1.1429246541449747 -0.5830836032389397 0.1394286466743945 0.3300899125146088
N 0.2708556317634871 0.2412723602079786 1.2287672783083194 0.6266498413516267
O 0.3915608789403426 0.2661262177039251 0.9814503851477158 -0.5811225412727979
N 0.2539674825973542 0.6310398825977567 1.7138988003890299 0.5003074335780895
O 0.2253556216429184 0.5238141300488736 1.6199173604115233 -0.5967490130385100
N -0.0570879570498174 -1.0406542200319620 1.3402215619599667 0.9708061175491041
O -0.1634369577938953 -1.2358094653838743 1.0571025874156916 -0.1568654630532827
O -0.0280600830425275 -0.9049084400059950 1.3959531424863614 -0.7813807259506527
N -0.7251967274538348 -0.2270976196416031 -0.2502065571430587 0.1400529194232831
N -0.7207084724070301 0.4453037379387192 -0.1363692264261107 0.1778327620465852
N -0.9359416303570259 0.8692619465164216 -0.4406805261232209 0.7120624373414439
O -0.8924794123266960 1.0357180281848977 -0.5261759219588922 -0.9970019554920370
N -1.7663615451564938 0.2830664789474259 0.5655766871833929 0.9931708722557875
N -2.4051576635635179 0.3781742467572275 1.0140965621899936 0.8506195801821621
O -2.1251823443979845 0.3152351504809470 0.9363578316499299 -0.8089940633040810
O -2.2878574747096136 0.3659620069786632 0.8571134928953539 -0.9883399134133223
N -1.4883757774989301 -1.1619382972305516 -1.1940145405946283 0.2529889584625400
N -1.3567324941426102 -0.5226378965657983 -0.6600969109536359 0.5419198115726583
O -1.3938598647599276 -0.8704220955881001 -0.9085150708302870 -0.9654652454832693
