21
s                      x[A]                      y[A]                      z[A]                      q[e]
N        2.1280066839332479        1.5728978063987737        0.1954118706757844        0.0690680479201058
O        1.8782009628651997       -0.2660559264087671       -0.3277461255895908       -0.3117950550350966
N        1.9767773408990370       -0.3859155530387796        0.0235241127272696        0.5776243102962968
N        3.3107271316129641       -0.6086401318678184        0.0719792843168725        0.0604184539076988
O        1.8259532429681025       -0.3346012207701608        0.3391249766986056       -0.3968494342195521
O        0.9230224838862074       -0.1640603519400524       -0.1370418240701974       -0.9828651838991298
N        0.7601799703869156       -0.0235102338374599       -0.1290129723573994        0.7759263489545838
N        0.9870714057209610       -1.3939383056593615       -0.0993124789850519        0.9970342621901004
O        0.9815751012542664       -1.4105440801246698        0.1799861753507703       -0.3970377457969525
O        1.0544981472910280       -1.3830041404882092       -0.3665847438172235       -0.3893757401670396
N       -1.8089262564961892       -1.2320429880478097        0.1568848022117613        0.1691966627363242
O       -1.4816770504341799       -0.9143358230206025        0.0912104451522921       -0.6800109224217911
O       -0.3639997542374559        0.4205715281512398        0.3097837779600951       -0.9821368279659007
N       -0.2156722555180806        0.4817918858853595        0.1851040742019101        0.8921713087406896
O       -0.5682022201419200        0.4895635054289182       -0.3564447106520727       -0.3335771210350215
N       -0.7902966935510846       -0.1167430457736658        0.0561588658453227        0.9988617281482304
N       -2.2573090001285929        1.7196791872860371        0.0006096003803292        0.0655379221577991
N       -1.0666933994189218        1.0935726518249906       -0.0350533516107261        0.9908754307264420
O       -0.9239693613362258        1.0912766126293274        0.3132691466304208       -0.6595771554465193
O       -1.0021164672476162        1.1383115126031433       -0.4019384955671629       -0.5578053818499882
N        0.1965665242914309        2.2458149188890162       -0.0339455168396616        0.0943160920587207

        RMSE         6.834101605E+00 kcal/mol

Coordinates in bohr
s                   x[bohr]                   y[bohr]                   z[bohr]                      q[e]
+        4.0213498257775377        2.9723460774270718        0.3692749172406163        0.0690680479201058
-        3.5492854283864159       -0.5027728349675324       -0.6193504160442322       -0.3117950550350966
+        3.7355677853099656       -0.7292747027978879        0.0444541303989364        0.5776243102962968
+        6.2563675548710753       -1.1501631581927141        0.1360211340653508        0.0604184539076988
-        3.4505515471012687       -0.6323046684994553        0.6408533282626323       -0.3968494342195521
-        1.7442597021847435       -0.3100291332129229       -0.2589715152258475       -0.9828651838991298
+        1.4365319500899127       -0.0444279030982707       -0.2437991843867464        0.7759263489545838
+        1.8652946230832834       -2.6341616334809150       -0.1876733861220342        0.9970342621901004
-        1.8549081129391003       -2.6655419993214684        0.3401245777815844       -0.3970377457969525
-        1.9927126981827326       -2.6134990558969173       -0.6927447675856723       -0.3893757401670396
+       -3.4183752059274770       -2.3282238222010725        0.2964693094268494        0.1691966627363242
-       -2.7999638316967657       -1.7278442922040176        0.1723627611189247       -0.6800109224217911
-       -0.6878598452427492        0.7947650043711203        0.5854064984542187       -0.9821368279659007
+       -0.4075614957889332        0.9104547137911605        0.3497960049480339        0.8921713087406896
-       -1.0737465799453265        0.9251409462797420       -0.6735828820004780       -0.3335771210350215
+       -1.4934443086664235       -0.2206123835640154        0.1061248759639877        0.9988617281482304
+       -4.2656957907740898        3.2497226876205096        0.0011519777647971        0.0655379221577991
+       -2.0157583847353586        2.0665528102398820       -0.0662412343236484        0.9908754307264420
-       -1.7460490412396499        2.0622139249867621        0.5919928906873854       -0.6595771554465193
-       -1.8937256689093243        2.1510970042755777       -0.7595536759004832       -0.5578053818499882
+        0.3714568963439578        4.2439751251675268       -0.0641477300140772        0.0943160920587207
