21
s                      x[A]                      y[A]                      z[A]                      q[e]
N -0.1228182850104877 -0.0010513009351740 0.5355303564198595 0.0690680479201058
O -0.1833351743521169 0.3564654833089512 0.2082999501733669 -0.3117950550350966
N -0.3193400479455697 0.0033088028366295 0.1487902771811497 0.5776243102962968
N -0.1748324550390887 0.0150965750915137 -0.3845393073176034 0.0604184539076988
O -0.1900287186493106 -0.3156236813444749 0.2308466584098749 -0.3968494342195521
O -0.5244555599422213 -0.0729878937875757 0.1033815462450456 -0.9828651838991298
N -0.5888777994462300 -0.0695325908928278 0.3120955795589242 0.7759263489545838
N -0.2134569591908545 -0.0052388635492604 -0.3836021344922492 0.9970342621901004
O -0.2194476253416708 -0.2858897253137364 -0.3836466167718557 -0.3970377457969525
O -0.2631973460309082 0.2642860338180463 -0.3695240380124785 -0.3893757401670396
N -0.0844390607031403 -0.1000468224000419 0.5080633520994730 0.1691966627363242
O -0.1038041410739860 -0.0551790497926728 -0.3185222716173021 -0.6800109224217911
O -0.1341037043997660 0.3426349027312982 0.4738261166863237 -0.9821368279659007
N -0.2867690838250297 0.2205219516978809 0.5496456809785385 0.8921713087406896
O 0.0547565293481914 -0.3288419734147767 0.5406379210186261 -0.3335771210350215
N 0.2673156317925669 0.0782965284381761 -0.0638035269588691 0.9988617281482304
N 1.7847861214400607 -0.0135320693167400 0.3651924960004748 0.0655379221577991
N 0.5758825640879690 -0.0204977019891542 -0.2220773226809437 0.9908754307264420
O 0.4430561013574772 0.3320998994690146 -0.2311231397714798 -0.6595771554465193
O 0.5050925943692450 -0.3853575697139745 -0.1857439641035770 -0.5578053818499882
N -0.6543390205108854 0.0103693785884236 0.9585561321060889 0.0943160920587207
