21
s                      x[A]                      y[A]                      z[A]                      q[e]
N 0.0265348927535675 -0.0454735031951561 0.3783299073953449 0.0707249461841811
O 0.1041645369754061 0.2903511494790466 0.3151393642702573 -0.3496602100029151
N 0.3738638880985699 -0.1799860649922776 0.3119093750581394 0.9824851761690530
N 0.0333908750048794 -0.0118133457044928 -0.1888230206255342 0.1071394941056757
O 0.2579283805474181 -0.3300980886685655 0.3226313297658725 -0.8194842575378962
N 0.0993119698297279 0.1256691717225098 0.2891325673985251 0.3116552922920345
N 0.0292116238346714 -0.0155581730599415 0.2435375708978631 0.0918298459672651
N 0.0885475599837135 0.0388692648717859 -0.5515259121555619 0.5593901217632046
O 0.0492407384347355 0.0593819193045319 -0.1963139476574786 -0.9963138680841535
N 0.2231297585444819 0.0841320236361804 -0.4260803490723427 0.9989733053171830
O 0.2021812887395331 0.0995370435178106 -0.3301137135744184 -0.8354521971080898
N 0.0324664212364670 0.0064871745015521 0.4288637193110815 0.2899344186932475
O 0.0365306366378140 -0.0024232766919172 0.0401450373055918 -0.8678253524624289
N -0.0016253904002076 0.0785975863496897 -0.3501232608435997 0.9219570073558310
O 0.1226715955846564 0.2412792861132903 -0.1787694393714737 -0.9704818863270434
O 0.2603488736640444 -0.4187145676879075 -0.2004416217357650 -0.3320651923316272
N 0.0892986765676011 0.0131587061460614 0.3966710178602938 0.9769593393400061
O 0.1989936546291189 -0.5135514218519044 -0.0949324693031988 -0.1970026432733326
O 0.2298712672396470 0.4904931274458493 -0.0737925435502214 -0.1946060569702309
N 0.0220788664724473 -0.0009749971954175 0.1839164757346325 0.1283355164991325
N 0.0378501861370104 0.0038406157131909 -0.1488346175637631 0.1235072004109040
