21
s                      x[A]                      y[A]                      z[A]                      q[e]
N       -1.7066258052084522        0.6779165565132562       -1.6003385069609624        0.0707249461841811
O       -1.6429045452537929        0.1906192723407207       -0.0862775055639353       -0.3496602100029151
N       -1.4305097128667710       -0.1111935956482760       -0.4834710302276131        0.9824851761690530
N       -3.1106951881553804       -0.3112521893219500        0.0287979832010650        0.1071394941056757
O       -1.4812427314074852       -0.2938257149171014       -0.4707709626209679       -0.8194842575378962
N       -0.6373070250819570       -0.3816361502469014        0.2542073850846558        0.3116552922920345
N       -1.0816481260381321       -0.9867327719025806        1.6020179797671008        0.0918298459672651
N       -1.4187390684675583       -0.5334815936745265        0.5382209384149297        0.5593901217632046
O       -1.0923249516257496       -0.4267719646310575        0.4371852302195823       -0.9963138680841535
N        0.8996050751197207        0.8142784853876071       -0.0573660153274126        0.9989733053171830
O        0.8961027890539595        0.9129231336974222       -0.0693123748423521       -0.8354521971080898
N        0.9176189764072561        1.6874548643264349        0.0453428035648789        0.2899344186932475
O        0.8421682559500221        1.3063638380663911        0.0619243057264975       -0.8678253524624289
N        0.4176767894152142       -0.4008878058910016        0.0333839600153667        0.9219570073558310
O        0.5310488143633332       -0.2544390280520490       -0.1589094296906686       -0.9704818863270434
O        0.8196568330415361       -0.3242316356186571        0.4467728359625637       -0.3320651923316272
N        0.6764181886235391        0.3081565815146406        0.0570498157027400        0.9769593393400061
O        1.1824936916472202       -0.7448053334433706       -0.6590767028863059       -0.1970026432733326
O        1.4580387882581285       -0.7586269470509464        0.3070442228403161       -0.1946060569702309
N        2.6230502048869484       -0.5235712327097252       -0.5099462167127821        0.1283355164991325
N        1.1807926146805714       -2.1285589720314451       -0.1925380875083277        0.1235072004109040

        RMSE         7.707507970E-01 kcal/mol

Coordinates in bohr
s                   x[bohr]                   y[bohr]                   z[bohr]                      q[e]
+       -3.2250553704829144        1.2810766277235084       -3.0242014861803050        0.0707249461841811
-       -3.1046396407995052        0.3602182189580207       -0.1630408563035017       -0.3496602100029151
+       -2.7032715771255136       -0.2101254426801410       -0.9136278367231319        0.9824851761690530
+       -5.8783619653931769       -0.5881813937676349        0.0544203012155482        0.1071394941056757
-       -2.7991430876852372       -0.5552501298101704       -0.8896281871717737       -0.8194842575378962
+       -1.2043357352351816       -0.7211878035407185        0.4803823368787927        0.3116552922920345
+       -2.0440187223267601       -1.8646546979097265        3.0273752298190608        0.0918298459672651
+       -2.6810282828908472       -1.0081341050176305        1.0170901685911213        0.5593901217632046
-       -2.0641949985766375       -0.8064821311762735        0.8261603512102398       -0.9963138680841535
+        1.7000072130481882        1.5387633272351915       -0.1084060578776258        0.9989733053171830
-        1.6933888515708924        1.7251746962828485       -0.1309814055571187       -0.8354521971080898
+        1.7340485529326624        3.1888275426485588        0.0856854804980540        0.2899344186932475
-        1.5914673553000118        2.4686698741474191        0.1170199783322001       -0.8678253524624289
+        0.7892947409552780       -0.7575681601696923        0.0630865414122780        0.9219570073558310
-        1.0035368183957951       -0.4808200786460542       -0.3002953008680603       -0.9704818863270434
-        1.5489269313086160       -0.6127089925284992        0.8442783002633413       -0.3320651923316272
+        1.2782451227767628        0.5823315428199911        0.1078085271860220        0.9769593393400061
-        2.2345892222948254       -1.4074780969882665       -1.2454744641248592       -0.1970026432733326
-        2.7552939901022597       -1.4335971613184859        0.5802294895722405       -0.1946060569702309
+        4.9568465005623752       -0.9894062369897278       -0.9636586883005236        0.1283355164991325
+        2.2313746527095346       -4.0223934990254806       -0.3638442541101724        0.1235072004109040
