25
s                      x[A]                      y[A]                      z[A]                      q[e]
N       -1.7547544234657062        0.8389564718661336       -1.3865756821496498        0.1158659338886357
O       -1.8687060145258516        0.3185872204574999        0.2701321467469280       -0.2341991647481463
N       -3.3887963472693845       -0.1751072389542098        0.0292364209862172        0.0569852111266852
N       -2.1650116735640990       -0.1951279301316851        0.0470392163581835        0.3189271149812888
O       -1.8405027029481680       -0.3289487573568368       -0.1844810678711030       -0.2877498234141676
N       -1.3714612525309446       -0.3712048470402466        0.7129449198889760        0.5692545008206258
O       -0.9889959507798057       -0.3515923021945087       -0.0436772609981826       -0.2058946535748549
O       -1.0878619169082238       -0.3568312964902001        0.5763889369717381       -0.9992971180892700
N       -0.6384255304637172       -0.3695660227857399        0.3431303894406083        0.6691943173322236
N       -1.0553927851003977       -1.1572935659063206        1.6442565503354296        0.0628076875181509
N        1.3246509598336680       -1.2687714696282195       -0.2420052280559400        0.7576134719858190
O        1.1241404727890902       -1.0270859678126547       -0.2391627692660426       -0.9235083265987739
N        0.9672550567430676       -0.6376973740122559       -0.1243272259874762        0.9955526175656415
O        1.2373474914510869       -1.1231010373186343       -0.1772478422806748       -0.9936641819349231
O        0.3881942368197828        0.1088276742176998        0.1884432018795647       -0.9934394819660318
N        0.5531526994874155       -0.1991457073545068       -0.0276020063359493        0.8475065253219278
N        0.2035760408471314        0.3085856768234134        0.1693366473721791        0.9207393412409772
O        0.4115760554830005        0.3289261030489595       -0.1268093534551508       -0.6738758902636315
N        2.3706572513385713        1.3539879676760784       -0.2580525261073379        0.1207489421105395
N        0.6278761320381733        0.9140491159992920        0.0654857822814709        0.4308753055723465
O        1.0290524438964541        0.8252140333974836        0.2208042528895930       -0.7095764258838037
N        1.1793351594678168        0.7534217571756263       -0.0109249912033772        0.9977500474782615
O        1.0289085084543907        0.8982825735550212       -0.0726854559395837       -0.9963537733476465
O        0.6440597419445457        2.1836376772153843        0.6615561698552940       -0.1586318904925156
N        0.6364313542565828        2.1812413764071050        0.4894603665156330        0.3123697133706422

        RMSE         4.401544951E-01 kcal/mol

Coordinates in bohr
s                   x[bohr]                   y[bohr]                   z[bohr]                      q[e]
+       -3.3160052777858340        1.5853979630073582       -2.6202482914827026        0.1158659338886357
-       -3.5313425764496773        0.6020425937355303        0.5104757750336778       -0.2341991647481463
+       -6.4038969912910151       -0.3309047242085570        0.0552488285525382        0.0569852111266852
+       -4.0912791214552531       -0.3687383473763551        0.0888912360731226        0.3189271149812888
-       -3.4780460417369015       -0.6216230607141023       -0.3486186936083821       -0.2877498234141676
+       -2.5916861589608420       -0.7014754973485310        1.3472706411266364        0.5692545008206258
-       -1.8689314861606032       -0.6644131589668268       -0.0825380611967060       -0.2058946535748549
-       -2.0557610852721035       -0.6743134233585194        1.0892172326203589       -0.9992971180892700
+       -1.2064494040765590       -0.6983785683397558        0.6484224613644363        0.6691943173322236
+       -1.9944033186239210       -2.1869678863174249        3.1071945601240256        0.0628076875181509
+        2.5032275259104706       -2.3976305933919697       -0.4573236019546896        0.7576134719858190
-        2.1243176201140588       -1.9409111864667115       -0.4519521333188832       -0.9235083265987739
+        1.8278471507085687       -1.2050733878068118       -0.2349444070542332        0.9955526175656415
-        2.3382478808648255       -2.1223533717498104       -0.3349498782388198       -0.9936641819349231
-        0.7335807910705068        0.2056544991420006        0.3561060417567371       -0.9934394819660318
+        1.0453071075888920       -0.3763308459605907       -0.0521602324880960        0.8475065253219278
+        0.3847029629060941        0.5831424154352906        0.3199998865366465        0.9207393412409772
-        0.7777660246591067        0.6215802502766526       -0.2396349481766143       -0.6738758902636315
+        4.4798929423605429        2.5586664360730347       -0.4876486003254247        0.1207489421105395
+        1.1865139302639449        1.7273024944554949        0.1237501936233389        0.4308753055723465
-        1.9446272876973552        1.5594285180056535        0.4172595652976610       -0.7095764258838037
+        2.2286204615173073        1.4237607780231250       -0.0206452412974189        0.9977500474782615
-        1.9443552891321088        1.6975080472904167       -0.1373556050298452       -0.9963537733476465
-        1.2170965207082352        4.1264771671679599        1.2501599776333656       -0.1586318904925156
+        1.2026809571991708        4.1219488149260988        0.9249460419807556        0.3123697133706422
