21
s                      x[A]                      y[A]                      z[A]                      q[e]
N 1.9567562920235064 1.4165473679283922 0.3151412567197034 0.0707249461841811
O 1.6544890934204375 -0.0469767013464732 -0.2269437630524829 -0.3496602100029151
N 1.4697869354744326 0.1140242101451369 0.2624863210771914 0.9824851761690530
N 3.0390665186538977 -0.6781992697895074 0.0631499684565815 0.1071394941056757
O 1.5061444962550665 -0.0159292333669739 0.3949584811983406 -0.8194842575378962
N 0.4955373810847402 -0.6411727422842456 0.0188493233912165 0.3116552922920345
N 0.7560373901764904 -1.9866473478784141 -0.3210998431721399 0.0918298459672651
N 1.2563795780096478 -0.9881995654551787 -0.1055678411083162 0.5593901217632046
O 0.9577442682089452 -0.7998561607371488 -0.0718449907626980 -0.9963138680841535
N -0.7266746896260148 0.8833462956755365 0.0385654567467074 0.9989733053171830
O -0.6984844880749477 0.9802039054181074 0.0529065939381734 -0.8354521971080898
N -0.5238529870371368 1.7351395698753085 -0.0486112041293982 0.2899344186932475
O -0.5314837366097258 1.3479886957956673 -0.0575280361277756 -0.8678253524624289
N -0.5247352199474353 -0.4073530647172574 0.0218400840972323 0.9219570073558310
O -0.6330376993749351 -0.2324153074114174 0.1908482835186587 -0.9704818863270434
O -0.8032780612807845 -0.2510866814294482 -0.4620606005072305 -0.3320651923316272
N -0.6058792748591639 0.3414641380744572 -0.0391842155784108 0.9769593393400061
O -1.4486389528267378 -0.5491271337504008 0.5838459549102102 -0.1970026432733326
O -1.5642832864901788 -0.5209567002032673 -0.4138962633816330 -0.1946060569702309
N -2.7567966536272306 -0.0019376902173443 0.2104524814952175 0.1283355164991325
N -1.7000044035427053 -1.9060692838276676 0.1027535997557037 0.1235072004109040
