25
s                      x[A]                      y[A]                      z[A]                      q[e]
N 1.4500412317289726 0.0037476269188573 -0.0764569910116691 0.1158659338886357
O 0.2453193433728274 -0.4395998412890600 0.2277871689768377 -0.2341991647481463
N -0.8527062498269318 -0.0061975843929812 0.2338381637081305 0.0569852111266852
N -0.0988570487405301 0.0320864152686191 0.3789178800771293 0.3189271149812888
O 0.1781435855310207 0.3399142439603710 0.2580816073512489 -0.2877498234141676
N -0.0247138458850452 0.1140439742432807 -0.5359046444769818 0.5692545008206258
O 0.2913414514264660 0.4966785547785387 -0.4691846430882655 -0.2058946535748549
O 0.2704980961156806 0.1684014670906181 -0.5857536194769102 -0.9992971180892700
N 0.1206897393245978 0.0192968135763894 -0.3572389847900731 0.6691943173322236
N 1.0581538536057720 0.0207011932883974 -0.3499206749570196 0.0628076875181509
N -1.0106665313236594 -0.0032945829784852 0.3279917307217298 0.7576134719858190
O -0.9980812219494197 0.0738691289192486 -0.0284848000707961 -0.9235083265987739
N -1.1025338897107846 0.0116127182847786 -0.4394958203867212 0.9955526175656415
O -1.0219819720813716 -0.0531644895055731 0.1265465817044751 -0.9936641819349231
O -0.3154286525660235 -0.1176667418342637 0.4983098673809376 -0.9934394819660318
N -0.7010450685158056 0.0541511246980276 0.6703767770983164 0.8475065253219278
N -0.0520903742177778 -0.0184511073697228 0.3995300664171174 0.9207393412409772
O -0.3143607453581550 0.2555355513793605 0.2739878230987070 -0.6738758902636315
N -0.4467275765360108 0.0228502917781125 0.3089425020894974 0.1207489421105395
N -0.1521719524771974 0.0763927383670907 -0.3353387745705748 0.4308753055723465
O -0.0855196088010027 0.2120158378750519 0.6660067604339579 -0.7095764258838037
N 0.0243232841827336 0.0078460868469469 0.4365518841367030 0.9977500474782615
O -0.1260081357681385 -0.1260007492979522 0.5736118952254008 -0.9963537733476465
O -1.0539724010768914 0.3706961543925864 0.0822564449604899 -0.1586318904925156
N -1.0469106717460543 0.2016301656819380 0.0361305934569860 0.3123697133706422
