10
s                      x[A]                      y[A]                      z[A]                      q[e]
C -1.2905040955593914 -0.2925198150085209 -0.9550063877952286
C -0.4428777700287365 0.1721695553073060 -0.0435012171833745
C 1.0253301078157939 0.1845918974086857 -0.0376793907107637
C 1.7696881305905328 -0.9250970415551028 -0.0985758865884109
H -2.3613524318018762 -0.1968541402004891 -0.8277810795399034
H -0.9131087281790504 -0.7795168525768189 -1.8450370055858787
F -0.9725997516332846 0.8631149577586458 1.0728080780274529
H 1.4879125217743434 1.1617226164212584 0.0800985332444822
H 1.3167867339224348 -1.9101243753416959 -0.1632376435748068
H 2.8533363726020307 -0.8781281988746147 -0.0907367125342311
