25
s                      x[A]                      y[A]                      z[A]                      q[e]
N -1.7572555664487299 0.8363854354259954 -1.4001943454794430 0.1158659338886357
O -1.8761377526817664 0.3164753356392135 0.2190900267635407 -0.2341991647481463
N -3.3779592009666577 -0.1696455920029078 0.0469287390765979 0.0569852111266852
N -2.1682877648805392 -0.1856690606337020 0.0930640119956825 0.3189271149812888
O -1.8669541275063490 -0.3507631256783563 -0.1957482567005780 -0.2877498234141676
N -1.4162883886716804 -0.3414530385743590 0.6954501287343378 0.5692545008206258
O -0.9790512241889290 -0.3608675519264061 -0.0678013921206472 -0.2058946535748549
O -1.1161711988469809 -0.3691922953823544 0.6575750773029531 -0.9992971180892700
N -0.6590772530464211 -0.3834450652937385 0.3439145646387004 0.6691943173322236
N -1.0729180527319158 -1.0953154914423513 1.6299076293545243 0.0628076875181509
N 1.4087380785414658 -1.3334966103432242 -0.2634355800594441 0.7576134719858190
O 1.1899275649174035 -1.0478257715819965 -0.2747671315684769 -0.9235083265987739
N 1.0438410660590884 -0.6653041229742613 -0.1388283956034820 0.9955526175656415
O 1.3303802011212045 -1.1639933921543404 -0.1888501228237835 -0.9936641819349231
O 0.4045373243301812 0.1378222218448738 0.2090888681602370 -0.9934394819660318
N 0.5903140071855195 -0.2027933540984109 -0.0307317910007771 0.8475065253219278
N 0.2062807737726149 0.3449960608824094 0.1819889230015717 0.9207393412409772
O 0.4122923998848254 0.3514876712982937 -0.1665201306613862 -0.6738758902636315
N 2.3761519207481245 1.3536926421366160 -0.2704730432023267 0.1207489421105395
N 0.6348241202900408 0.9393689690322290 0.0675757227754518 0.4308753055723465
O 1.0545817129259698 0.8431723323575413 0.2437015052899985 -0.7095764258838037
N 1.2322214958554687 0.7766316398591340 -0.0175247097877354 0.9977500474782615
O 1.0588836540686466 0.9311773078791814 -0.0963054087018087 -0.9963537733476465
O 0.6419921326122030 2.2256863858639826 0.6861483195425990 -0.1586318904925156
N 0.6283464230812359 2.2019072349289357 0.5125289469940723 0.3123697133706422
