25
s                      x[A]                      y[A]                      z[A]                      q[e]
N       -1.7571830085983267        0.8363639686104140       -1.4001439813135588        0.1158659338886357
O       -1.8761959194206739        0.3166136890368933        0.2188589837649889       -0.2341991647481463
N       -3.3779462041793136       -0.1696967410286789        0.0469918394151244        0.0569852111266852
N       -2.1682568810650062       -0.1857884606095917        0.0933939453816858        0.3189271149812888
O       -1.8669310123478118       -0.3507298710264384       -0.1960626627220167       -0.2877498234141676
N       -1.4163013914386307       -0.3416035242839895        0.6960219036884324        0.5692545008206258
O       -0.9790238159347581       -0.3609242761718783       -0.0680660905721618       -0.2058946535748549
O       -1.1160713833201439       -0.3690628489199743        0.6568975043330295       -0.9992971180892700
N       -0.6591553474028858       -0.3833611965605737        0.3444479555791913        0.6691943173322236
N       -1.0729696628723890       -1.0953568389314703        1.6301177901652364        0.0628076875181509
N        1.4086228931808245       -1.3331342216583584       -0.2632675836074025        0.7576134719858190
O        1.1899241392856370       -1.0480925991042633       -0.2749258787064833       -0.9235083265987739
N        1.0436609173556719       -0.6649511316477658       -0.1385945116016216        0.9955526175656415
O        1.3303680488068850       -1.1642265585919853       -0.1890156298721951       -0.9936641819349231
O        0.4046057090325554        0.1376682046687434        0.2087791338356264       -0.9934394819660318
N        0.5901748168609589       -0.2025341163304410       -0.0304523098986773        0.8475065253219278
N        0.2062166447795254        0.3450935889519030        0.1822592810458154        0.9207393412409772
O        0.4123089997828560        0.3513040019675004       -0.1666656370714865       -0.6738758902636315
N        2.3761010118788688        1.3537777519871930       -0.2704653900989520        0.1207489421105395
N        0.6347998700020469        0.9394617125577001        0.0676997632501390        0.4308753055723465
O        1.0546477838014936        0.8430057459300904        0.2435413270890307       -0.7095764258838037
N        1.2320759223065008        0.7767994200415762       -0.0174103700691437        0.9977500474782615
O        1.0589143318125247        0.9309672852789985       -0.0963713360382359       -0.9963537733476465
O        0.6419528167280997        2.2256410614432953        0.6860740209400455       -0.1586318904925156
N        0.6284287905245330        2.2019273924509073        0.5125770499547725        0.3123697133706422

        RMSE         8.226929604E-01 kcal/mol

Coordinates in bohr
s                   x[bohr]                   y[bohr]                   z[bohr]                      q[e]
+       -3.3205946385588452        1.5804988418746901       -2.6458886608907690        0.1158659338886357
-       -3.5454964454066178        0.5983131598505980        0.4135835394118503       -0.2341991647481463
+       -6.3833931924287519       -0.3206803649269458        0.0888017066260794        0.0569852111266852
+       -4.0974116748522489       -0.3510893078225381        0.1764889785473532        0.3189271149812888
-       -3.5279883084610910       -0.6627834002571151       -0.3705047359726216       -0.2877498234141676
+       -2.6764217409238542       -0.6455371043879227        1.3152907752909231        0.5692545008206258
-       -1.8500868824173282       -0.6820480339939546       -0.1286262696119929       -0.2058946535748549
-       -2.1090692509359341       -0.6974277075399709        1.2413563756861727       -0.9992971180892700
+       -1.2456230807224642       -0.7244476686272897        0.6509123005185353        0.6691943173322236
+       -2.0276188037536320       -2.0699244352277018        3.0804761756488293        0.0628076875181509
+        2.6619114821617957       -2.5192585674096870       -0.4975036307290616        0.7576134719858190
-        2.2486307333209878       -1.9806079664263245       -0.5195346155560915       -0.9235083265987739
+        1.9722333016462965       -1.2565755256275306       -0.2619056694186525        0.9955526175656415
-        2.5140312583047257       -2.2000693437231336       -0.3571877738893541       -0.9936641819349231
-        0.7645939788682083        0.2601552030073997        0.3945353836596396       -0.9934394819660318
+        1.1152687700094430       -0.3827340109261492       -0.0575465255960685        0.8475065253219278
+        0.3896929811441258        0.6521323707704161        0.3444201249994381        0.9207393412409772
-        0.7791510886510489        0.6638683504958739       -0.3149524085900609       -0.6738758902636315
+        4.4901801588742796        2.5582691859937667       -0.5111055137021325        0.1207489421105395
+        1.1995978987801010        1.7753253420876385        0.1279340113010975        0.4308753055723465
-        1.9929954702058816        1.5930499819951560        0.4602264084288116       -0.7095764258838037
+        2.3282860589301437        1.4679381582930557       -0.0329008311735498        0.9977500474782615
-        2.0010580774478472        1.7592732009382746       -0.1821154314567298       -0.9963537733476465
-        1.2131150090823311        4.2058520597010869        1.2964920013683052       -0.1586318904925156
+        1.1875583034440749        4.1610397198757116        0.9686302426096359        0.3123697133706422
