8

C         1.672633       0.314434        0.087656
C         0.614991       -0.501106        -0.021943
C         -0.745415       -0.035287        -0.422896
O         -1.659000       0.177032        0.387658
H         -0.920455       0.144137        -1.498862
H         2.633363       -0.049313        0.438787
H         1.616512       1.371191        -0.162309
H         0.689324       -1.550522        0.264214
