8

C         1.520377       0.449903        0.065506
C         0.657506       -0.563277        -0.126548
C         -0.789763       -0.442050        0.142044
O         -1.478834       0.559102        -0.122179
H         -1.272664       -1.337193        0.571497
H         2.589583       0.326140        -0.075676
H         1.170178       1.433505        0.367366
H         1.014859       -1.562725        -0.371768
