25
s                      x[A]                      y[A]                      z[A]                      q[e]
N -2.0393166555333728 1.4165585665552414 0.0028338964218151 0.1158659338886357
O -1.8441180966409916 -0.2099271879139278 0.4431886294593690 -0.2341991647481463
N -3.3453264836239658 -0.5786474597346446 0.0052903619538695 0.0569852111266852
N -2.1520039632040051 -0.4341727295972472 -0.0354855796645495 0.3189271149812888
O -1.9050466900025402 -0.2496698706216244 -0.3373207298478815 -0.2877498234141676
N -1.3737628869522878 -0.7764046700202809 0.1225886114660429 0.5692545008206258
O -0.7505465719872998 -0.6910815301787004 -0.5003986628591451 -0.2058946535748549
O -1.0730486938325470 -0.7426623111857461 0.1584359433781474 -0.9992971180892700
N -0.5593142034369326 -0.6359225242650499 -0.0118396719641334 0.6691943173322236
N -0.8154007752483037 -2.0361396523923765 -0.0218539724611906 0.0628076875181509
N 1.7380213280163699 -1.0822696660197373 0.0060638001262912 0.7576134719858190
O 1.4706496727516545 -0.8527271589053068 -0.0772109988704385 -0.9235083265987739
N 1.2150147199889547 -0.5143873173731205 -0.0077969812898656 0.9955526175656415
O 1.6044151066630943 -0.9347779004403372 0.0495641590160483 -0.9936641819349231
O 0.3468638356848195 0.1174659097698264 0.1122113536872995 -0.9934394819660318
N 0.6605683840106279 -0.1687534177203672 -0.0496572146374707 0.8475065253219278
N 0.1205875426924983 0.2769643645602786 0.0234682153944101 0.9207393412409772
O 0.4091962602231201 0.3309069422193886 -0.2587838973088812 -0.6738758902636315
N 2.0832666635560715 1.7277757805204899 -0.0229112340156984 0.1207489421105395
N 0.4339480337672371 0.9560219337671357 -0.0735533617055997 0.4308753055723465
O 0.8056155055515367 0.9680966725617168 0.2097091244850396 -0.7095764258838037
N 1.0535155340494142 0.9259143123054159 0.0092934057058816 0.9977500474782615
O 0.8815047943027842 1.0334818283524940 -0.1273174331718794 -0.9963537733476465
O 0.0287650355305062 2.2535532396894333 0.3693714626465797 -0.1586318904925156
N 0.0615494324930348 2.2154571922119581 0.2029883057566617 0.3123697133706422
