25
s                      x[A]                      y[A]                      z[A]                      q[e]
N       -2.0390449646872457        1.4163584026107616        0.0028381374044104        0.1158659338886357
O       -1.8444134588388525       -0.2094191194584081        0.4431636681340237       -0.2341991647481463
N       -3.3452239847620411       -0.5788122290825749        0.0053161987104113        0.0569852111266852
N       -2.1515945375671635       -0.4348261850632255       -0.0354148250153441        0.3189271149812888
O       -1.9054359179772653       -0.2491029278541082       -0.3373773613563563       -0.2877498234141676
N       -1.3734657608587622       -0.7772012828472084        0.1226118193084135        0.5692545008206258
O       -0.7506888531641280       -0.6907139420427657       -0.5003699033964834       -0.2058946535748549
O       -1.0732791544229989       -0.7418124222967131        0.1584067583845924       -0.9992971180892700
N       -0.5591343798584270       -0.6365264230345791       -0.0118963796999995        0.6691943173322236
N       -0.8154357987567977       -2.0363110096335877       -0.0218454398578453        0.0628076875181509
N        1.7378175230454496       -1.0822983817327876        0.0058427492993285        0.7576134719858190
O        1.4706619792990014       -0.8525167092377174       -0.0769717319651391       -0.9235083265987739
N        1.2149146553030481       -0.5145112119099249       -0.0080296116447190        0.9955526175656415
O        1.6044266885272396       -0.9345733105800732        0.0497839211849600       -0.9936641819349231
O        0.3466450463442117        0.1177831926531378        0.1123824448429111       -0.9934394819660318
N        0.6606289332574490       -0.1689892653916485       -0.0498555650914735        0.8475065253219278
N        0.1208488664916687        0.2766367692150554        0.0232937983002770        0.9207393412409772
O        0.4089343325507914        0.3311392134648725       -0.2585576734555481       -0.6738758902636315
N        2.0833170340143123        1.7277940572618520       -0.0230043872032299        0.1207489421105395
N        0.4342189615001389        0.9558688731904353       -0.0737270638370896        0.4308753055723465
O        0.8053532754068524        0.9681796978974920        0.2098954160613679       -0.7095764258838037
N        1.0536828252636545        0.9258005197127294        0.0090482425848466        0.9977500474782615
O        0.8811962555997100        1.0335402265761515       -0.1270580999718070       -0.9963537733476465
O        0.0285316835948112        2.2535718157177347        0.3694150898300008       -0.1586318904925156
N        0.0619304701829610        2.2153680514376166        0.2028783747876263        0.3123697133706422

        RMSE         9.365322978E-01 kcal/mol

Coordinates in bohr
s                   x[bohr]                   y[bohr]                   z[bohr]                      q[e]
+       -3.8532365407527229        2.6765294764252734        0.0053633024007533        0.1158659338886357
-       -3.4854362993138164       -0.3957447812109275        0.8374579615265874       -0.2341991647481463
+       -6.3215571595129685       -1.0937965910318230        0.0100461595911895        0.0569852111266852
+       -4.0659244090330233       -0.8217024019471376       -0.0669243200600132        0.3189271149812888
-       -3.6007520345873578       -0.4707363106939448       -0.6375508138931327       -0.2877498234141676
+       -2.5954741307166165       -1.4686975689357087        0.2317027582370236        0.5692545008206258
-       -1.4185963379142281       -1.3052601814961786       -0.9455620788411443       -0.2058946535748549
-       -2.0282036580224276       -1.4018223146032538        0.2993453897684502       -0.9992971180892700
+       -1.0566108452601306       -1.2028606111526656       -0.0224808995174553        0.6691943173322236
+       -1.5409503325442926       -3.8480701144619980       -0.0412818984214879        0.0628076875181509
+        3.2839991745773975       -2.0452475275011781        0.0110411959954415        0.7576134719858190
-        2.7791483639988428       -1.6110230978358495       -0.1454554928162608       -0.9235083265987739
+        2.2958559643277621       -0.9722852789871540       -0.0151737669023058        0.9955526175656415
-        3.0319270296917140       -1.7660876011587772        0.0940779764909524       -0.9936641819349231
-        0.6550642003371964        0.2225779762964671        0.2123720420624724       -0.9934394819660318
+        1.2484077544099372       -0.3193434297325247       -0.0942133638528208        0.8475065253219278
+        0.2283712602412716        0.5227677300479380        0.0440188992091787        0.9207393412409772
-        0.7727738918178900        0.6257624228481262       -0.4886031904665433       -0.6738758902636315
+        3.9368986267881612        3.2650575694185004       -0.0434719914980912        0.1207489421105395
+        0.8205549157159793        1.8063303821799015       -0.1393239586862453        0.4308753055723465
-        1.5218971247593625        1.8295944692547581        0.3966448513450075       -0.7095764258838037
+        1.9911719628469435        1.7495094290635798        0.0170987004020646        0.9977500474782615
-        1.6652195858623862        1.9531079678725565       -0.2401050109677563       -0.9963537733476465
-        0.0539170678924112        4.2586335357572374        0.6980933463901030       -0.1586318904925156
+        0.1170316274666285        4.1864388843062654        0.3833845651266022        0.3123697133706422
