21
s                      x[A]                      y[A]                      z[A]                      q[e]
N 0.4572154899558278 1.3410473488565890 -0.4005637736095356 0.0690680479201058
O -0.5523787869066310 0.0160935728060039 0.5507858723622772 -0.3117950550350966
N -0.4600631674150830 -0.2660597019929919 0.3045012620319296 0.5776243102962968
N 0.0993347823531167 0.4174876919268924 -0.4245473286623666 0.0604184539076988
O -0.1408301544932873 -0.3888292765720128 0.2065428187359296 -0.3968494342195521
O 0.0651329202395101 -0.3558658706774092 0.0856215408746082 -0.9828651838991298
N 0.1298250819999489 -0.3161575863263716 0.2767360336152166 0.7759263489545838
N -1.1825835871154515 -0.3675905283592489 -0.1713934439013970 0.9970342621901004
O -1.1765770516409004 -0.6493595825307013 -0.1271030577189686 -0.3970377457969525
O -0.1684323506928359 -1.0157891487556407 -0.5210188834667471 -0.3893757401670396
N 0.4295162477700870 0.2786255065248360 0.4176627096146263 0.1691966627363242
O 0.3231780007264503 0.2066628053025257 -0.0662957638289539 -0.6800109224217911
O 0.2003442599446016 -0.4403660238426980 -0.3340936402371836 -0.9821368279659007
N 0.0698102241026799 -0.3601852425939217 -0.4220796380247934 0.8921713087406896
O 0.2552961859657517 0.2524761940343132 -0.4031469121075419 -0.3335771210350215
N 0.1876504874396158 -0.0333186513832409 0.3509601037837092 0.9988617281482304
N -0.4783381515733902 -0.1596141973152715 0.0493595992666717 0.0655379221577991
N 0.1526664050906812 0.0358624180083803 -0.0540382243737396 0.9908754307264420
O 0.1276908905691375 0.4150490241700928 -0.1061999620176315 -0.6595771554465193
O -0.0075686206634331 -0.2797151444948617 -0.2111177692386044 -0.5578053818499882
N 0.5465276587391916 0.5157535330121064 -0.4271787874307368 0.0943160920587207
