25
s                      x[A]                      y[A]                      z[A]                      q[e]
N 2.3453049652822244 -0.2575310693678499 -0.4681100153599034 0.1158659338886357
O 1.4545822689358654 0.9342078482267573 0.3920219717160530 -0.2341991647481463
N 2.3787846451406556 2.1323687837954570 -0.1451649683615635 0.0569852111266852
N 1.4755330211814237 1.3418425181772760 -0.0527186819775269 0.3189271149812888
O 1.2919300986760269 1.0948238493510183 -0.3565302620946237 -0.2877498234141676
N 0.5697476610366162 1.2310946324531924 0.0790196579991751 0.5692545008206258
O 0.6000751862053482 0.5828630571808479 0.5782853110842812 -0.2058946535748549
O 0.5199673402903524 0.9369965384444251 -0.0016588218777250 -0.9992971180892700
N 0.3883418032303047 0.4241873867529781 0.1328480596225705 0.6691943173322236
N -0.4689309389000687 1.8770650531799613 0.5199533152043265 0.0628076875181509
N 0.5537285821003010 -1.9525981139107664 -0.0702470259885492 0.7576134719858190
O 0.4095837094248186 -1.6481640800362631 0.0667606544418882 -0.9235083265987739
N 0.0863846229226659 -1.3641100333950313 0.1088752458269993 0.9955526175656415
O 0.4373877110717751 -1.7829489817082802 -0.0805486157772374 -0.9936641819349231
O -0.4170883394993685 -0.4454759563099460 0.1655253813957240 -0.9934394819660318
N -0.1409570232475006 -0.7940401671926546 0.2485774918207792 0.8475065253219278
N -0.5363493664522271 -0.2112007175928254 0.3162553367419050 0.9207393412409772
O -0.5300827143812243 -0.5107680365879825 0.5813976502574029 -0.6738758902636315
N -2.8517044142165617 0.1405160625651996 -0.4547803586217699 0.1207489421105395
N -1.1855037742078545 -0.4672017902548848 0.5814458997023633 0.4308753055723465
O -1.5175155658765092 0.0727393890580417 0.2443402511451488 -0.7095764258838037
N -1.6136931489166297 0.0268400205482657 -0.0678603269402791 0.9977500474782615
O -1.5818457050213466 -0.2000285599832290 0.0302060584759731 -0.9963537733476465
O -2.1333024035315704 -0.6192970050931609 1.4394692806783476 -0.1586318904925156
N -2.1035762463715404 -0.7305407316997048 1.3069004497230152 0.3123697133706422
