25
s                      x[A]                      y[A]                      z[A]                      q[e]
N -2.3098468240059837 -0.4106450967133055 -0.4983583423694500 0.1158659338886357
O -1.3048498598564191 0.9618377834237857 -0.4939951591898812 -0.2341991647481463
N -2.5279340694633641 1.9766903896152703 -0.2596796422647821 0.0569852111266852
N -1.5906518559120557 1.2521786272008431 -0.0481412421504450 0.3189271149812888
O -1.5344903452408889 0.9507824851738960 0.2545740495245258 -0.2877498234141676
N -0.7238133263371032 1.1991691104106734 0.2591869271379445 0.5692545008206258
O -0.3702596344946775 0.6369592108097203 -0.3874714741397431 -0.2058946535748549
O -0.6696097976954294 0.9022870638655746 0.2972729325971370 -0.9992971180892700
N -0.4151654097448736 0.4358982614476218 0.0900656465590300 0.6691943173322236
N 0.3058564794877379 1.9589497055461447 0.5094423699684730 0.0628076875181509
N -0.4170570260744006 -1.9483937752133744 0.0035300057102809 0.7576134719858190
O -0.2370488160266023 -1.6331827954183533 -0.0118502972043839 -0.9235083265987739
N 0.0123098934268500 -1.3206113690319488 0.1452458443679865 0.9955526175656415
O -0.3225967843724186 -1.7864252261824929 0.0883368781106409 -0.9936641819349231
O 0.3840349567054610 -0.3800291996822743 0.4310683094921853 -0.9934394819660318
N 0.2228359514290285 -0.7295005378616134 0.1905747540127380 0.8475065253219278
N 0.5321328456591313 -0.1249418009526198 0.3864072325188254 0.9207393412409772
O 0.7035054831804320 -0.3909592320970762 0.1363173050545876 -0.6738758902636315
N 2.8443286498085847 0.1690087763617728 -0.4742051923630948 0.1207489421105395
N 1.2488306735987866 -0.3145496634915670 0.4915354213056138 0.4308753055723465
O 1.4828094577914523 -0.2225718676542269 0.0543768115616715 -0.7095764258838037
N 1.6069609390597248 0.0451691864822245 -0.0765301861469021 0.9977500474782615
O 1.6078540221294437 0.0903360424694794 0.1593801651113696 -0.9963537733476465
O 2.0986609570604555 -0.9534698845814565 1.2262982802508833 -0.1586318904925156
N 2.0992767338801253 -0.7805509557362346 1.2532158553094943 0.3123697133706422
