21
s                      x[A]                      y[A]                      z[A]                      q[e]
N        2.0222539253254714        1.4961724423085583       -0.5743720907865807        0.0707249461841811
O        1.6779218522800647       -0.0313078372363144       -0.3472339900951813       -0.3496602100029151
N        1.5618105368885753        0.3198602797530850        0.0562224560677199        0.9824851761690530
N        3.1167901578900885       -0.5097554298230916        0.0468179270061106        0.1071394941056757
O        1.6218387331735122        0.2540095563890979        0.2230125660771350       -0.8194842575378962
N        0.6474081263903402       -0.3251172622734480       -0.0084873379816192        0.3116552922920345
N        0.8493883070585573       -1.8195839554546893        0.4897902972622185        0.0918298459672651
N        1.4059095061782783       -0.6701223864891078        0.1344644600779441        0.5593901217632046
O        1.0686411390505421       -0.5704675677594552        0.0885027082083297       -0.9963138680841535
N       -1.2910107628587815       -0.4693862516160414       -0.1505734647249178        0.9989733053171830
O       -1.3389815206183502       -0.5561297330995083       -0.1741558111853254       -0.8354521971080898
N       -1.7566243458929436       -1.2160194646915334       -0.1450028596245766        0.2899344186932475
O       -1.4882426847000525       -0.9403424129735203       -0.1003152257202692       -0.8678253524624289
N       -0.2293716840503907        0.2954200254069673       -0.0166979834571586        0.9219570073558310
O       -0.4199692246355710        0.2624912830543727       -0.1996862150540856       -0.9704818863270434
O       -0.5633139211670184        0.3480764441276082        0.4543381652635471       -0.3320651923316272
N       -0.8203542343523570       -0.1754543305451673       -0.0239431294512403        0.9769593393400061
O       -0.7721123895861455        1.1331456614363722       -0.4614027564307480       -0.1970026432733326
O       -0.9152467827058516        1.0395734620944914        0.5287555684916867       -0.1946060569702309
N       -2.1086127661146468        1.5944056873476307       -0.0663694099398046        0.1283355164991325
N       -0.0301641780835789        2.1934475564253675        0.2215266890708080        0.1235072004109040

        RMSE         1.532211067E+00 kcal/mol

Coordinates in bohr
s                   x[bohr]                   y[bohr]                   z[bohr]                      q[e]
+        3.8215060749971874        2.8273561524205277       -1.0854059456932370        0.0707249461841811
-        3.1708127607302292       -0.0591632379570447       -0.6561771427298289       -0.3496602100029151
+        2.9513941745736578        0.6044483271456543        0.1062450440685753        0.9824851761690530
+        5.8898797889347296       -0.9632981533306808        0.0884730598032248        0.1071394941056757
-        3.0648310253574138        0.4800084948244317        0.4214326724213522       -0.8194842575378962
+        1.2234240502735294       -0.6143825843554594       -0.0160387443194563        0.3116552922920345
+        1.6051112745069516       -3.4385153380866194        0.9255695207321700        0.0918298459672651
+        2.6567839238546065       -1.2663477810026149        0.2541010031548721        0.5593901217632046
-        2.0194390792028214       -1.0780274665214262        0.1672458798750516       -0.9963138680841535
+       -2.4396567668214799       -0.8870114626095552       -0.2845426100913799        0.9989733053171830
-       -2.5303083610177461       -1.0509328857820299       -0.3291067862972100       -0.8354521971080898
+       -3.3195389190491640       -2.2979437514928338       -0.2740156920986564        0.2899344186932475
-       -2.8123710822991863       -1.7769896246721155       -0.1895683028247918       -0.8678253524624289
+       -0.4334496637902819        0.5582629399949615       -0.0315546155814552        0.9219570073558310
-       -0.7936268156821059        0.4960366352927938       -0.3773522574814958       -0.9704818863270434
-       -1.0645090336634062        0.6577691501244032        0.8585747006911012       -0.3320651923316272
+       -1.5502448287856028       -0.3315606322559160       -0.0452459572492275        0.9769593393400061
-       -1.4590809543906118        2.1413349603655036       -0.8719248431854395       -0.1970026432733326
-       -1.7295657565204716        1.9645091306526037        0.9992032117600463       -0.1946060569702309
+       -3.9847006326007448        3.0129900819593636       -0.1254200078944692        0.1283355164991325
+       -0.0570020353775015        4.1450151521986509        0.4186247718232790        0.1235072004109040
