24
s                      x[A]                      y[A]                      z[A]                      q[e]
N 1.5123782067328919 -0.2909935794432091 -0.3786943892864284 0.6959175615854226
O 1.6005720001370514 -0.1702666343895419 -0.6479758414710906 -0.4294665048044459
N 1.7455015616800538 -1.3995663383997030 0.2709986043530476 0.7289443612696791
O 1.6737228924583831 -1.2439223379950921 0.1538582858671378 -0.8899528116456963
N 2.4691822343688696 0.0274073452310279 -0.1777549342394779 0.4821174903544280
O 2.2420813657594643 -0.0904402618337216 -0.1132641177761300 -0.6035297564939646
N 1.4383883660061658 -1.0246956118180013 -1.6731371357934297 0.0604057803354635
N 0.4682167113192763 1.7320679332324171 0.2780249732661749 0.6991174418445399
O 0.0748479303483859 1.5831070305336956 0.3560535499548114 -0.4131324281244263
O 0.6185693533331968 1.5827573582832202 0.2277748145618905 -0.9286014603942530
O -0.0258826596488627 -0.0196311578921842 0.1732224892962813 -0.1057946580878595
N 0.6944689068692912 0.2221554118780953 -0.0217535086779732 0.9961038253671308
O 0.7115525871383184 0.1848314500670347 -0.3274054304411043 -0.3737552305035935
N -0.3716878646275776 -0.4061052517166129 0.4044093824145186 0.9714181100989372
O -0.6946023856369821 -0.6133754203254483 0.2259223814158518 -0.9973398242463560
N -0.9507926975440422 -0.5041198997953171 0.5219430118564581 0.7637225416907655
O -0.5963665002207390 -0.6362389186654137 0.7126637509414890 -0.9974375214017446
O -2.0907084996457708 -0.6298634555926419 -0.2381794691665546 -0.4871145088925188
N -1.2939945539977427 -0.4670066934208926 -0.3102782461154207 0.4662300369825688
N -2.2550068947966739 -0.6292070874476824 -0.1820519900464826 0.6223673236702755
N -2.2977297413847406 0.6024360641173265 -0.1076332287760585 0.9509229066582735
O -2.3013339329768256 0.5089853426699069 -0.0395293668206236 -0.9922381659518612
O -1.7037372618791558 -0.5469298572933611 -0.9834527388326165 -0.6086911331096487
N -1.6986495256975682 -0.6082799669326969 -1.3295135252861074 0.3897866237988844
