24
s                      x[A]                      y[A]                      z[A]                      q[e]
N       -1.4680594775566231       -0.5074904252182133        0.3203582098570317        0.6959175615854226
O       -1.5615063063587786       -0.4500325326961003        0.6081635637360470       -0.4294665048044459
N       -1.6068523278387756       -1.4885589072112573       -0.5303016662725986        0.7289443612696791
O       -1.5479309115161402       -1.3518936044957812       -0.3855606970745623       -0.8899528116456963
N       -2.4555447908976284       -0.2534742120600610        0.1877751034029576        0.4821174903544280
O       -2.2195695514034428       -0.3335339397027576        0.1010107398797804       -0.6035297564939646
N       -1.2940930827718091       -1.4646437191582997        1.4486172484698283        0.0604057803354635
N       -0.6404577740634311        1.6977713366567386        0.0630113316699455        0.6991174418445399
O       -0.2363235811332043        1.6065042076359921       -0.0435845051171517       -0.4131324281244263
O       -0.7744219268546252        1.5273657882128275        0.0839922284214957       -0.9286014603942530
O        0.0237757721948991        0.0166218764446262       -0.1738382901109041       -0.1057946580878595
N       -0.7121088756945645        0.1435039729692127        0.0664895756779364        0.9961038253671308
O       -0.7186234098702572        0.0467613162563913        0.3592462096777862       -0.3737552305035935
N        0.4002317698078705       -0.2819264267607451       -0.4763951228743767        0.9714181100989372
O        0.7456843277513207       -0.4863262559069494       -0.3423221567152884       -0.9973398242463560
N        0.9833381144008967       -0.2973610089020572       -0.6125281363739526        0.7637225416907655
O        0.6392417650916656       -0.4251283227174510       -0.8240014933857821       -0.9974375214017446
O        2.1468413992559632       -0.4522192901319149        0.1053051887986580       -0.4871145088925188
N        1.3398899556803636       -0.3864578070160785        0.2100833585779504        0.4662300369825688
N        2.3089975894888641       -0.4244389408757334        0.0498226731289987        0.6223673236702755
N        2.2301348527826517        0.7966325765024829        0.2143622265909754        0.9509229066582735
O        2.2412758084334912        0.7188053313918642        0.1294919575033950       -0.9922381659518612
O        1.7704577854874719       -0.5527011245016107        0.8538342418837787       -0.6086911331096487
N        1.7791209278581330       -0.6794533117896997        1.1815637369173679        0.3897866237988844

        RMSE         1.196387054E+00 kcal/mol

Coordinates in bohr
s                   x[bohr]                   y[bohr]                   z[bohr]                      q[e]
+       -2.7742303484647208       -0.9590179149545599        0.6053892786717343        0.6959175615854226
-       -2.9508192621933391       -0.8504382343417749        1.1492625749435450       -0.4294665048044459
+       -3.0365108236696612       -2.8129686562400678       -1.0021249131291479        0.7289443612696791
-       -2.9251654838957997       -2.5547086632550302       -0.7286041222115319       -0.8899528116456963
+       -4.6403071435911283       -0.4789968406597349        0.3548435186111141        0.4821174903544280
-       -4.1943785685577977       -0.6302877995831770        0.1908826341026460       -0.6035297564939646
+       -2.4454815072881475       -2.7677755005811573        2.7374898602222686        0.0604057803354635
+       -1.2102897879002328        3.2083228499336967        0.1190741596565843        0.6991174418445399
-       -0.4465868453291689        3.0358529718276617       -0.0823627779850319       -0.4131324281244263
-       -1.4634453473045765        2.8863030331162682        0.1587223083835219       -0.9286014603942530
-        0.0449296978696347        0.0314107941715423       -0.3285067584274927       -0.1057946580878595
+       -1.3456907465704195        0.2711832068269153        0.1256470882292018        0.9961038253671308
-       -1.3580014319974139        0.0883660809904985        0.6788769478998135       -0.3737552305035935
+        0.7563284316441564       -0.5327637341067530       -0.9002563097364019        0.9714181100989372
-        1.4091391554961283       -0.9190234312834518       -0.6468951228679495       -0.9973398242463560
+        1.8582397249418130       -0.5619308672147154       -1.1575104218838537        0.7637225416907655
-        1.2079918639774965       -0.8033760981112340       -1.5571371494673782       -0.9974375214017446
-        4.0569422793884335       -0.8545706069982730        0.1989979664190931       -0.4871145088925188
+        2.5320250544877148       -0.7302994143054230        0.3970000112286778        0.4662300369825688
+        4.3633730684762559       -0.8020733552345239        0.0941512070520146        0.6223673236702755
+        4.2143440945974247        1.5054173922075238        0.4050858999002770        0.9509229066582735
-        4.2353974495533828        1.3583452138495777        0.2447043351308404       -0.9922381659518612
-        3.3456803312558869       -1.0444537545406134        1.6135128736982551       -0.6086911331096487
+        3.3620512977222861       -1.2839806743178388        2.2328318625463304        0.3897866237988844
