21
s                      x[A]                      y[A]                      z[A]                      q[e]
N 1.1098965373500747 -1.6612278236068148 -0.3485027463611959 0.0707249461841811
O 0.4798779788093964 -0.3208688078489101 0.1973840155160846 -0.3496602100029151
N 0.9991853251999583 -0.3087251528109949 0.3678577765938002 0.9824851761690530
N -0.2688571212707606 0.1004578000693820 0.4344954256990987 0.1071394941056757
O 1.0310985608610219 -0.1600865326728171 0.4804697101785789 -0.8194842575378962
N 0.1667333589775531 -0.2794514580445339 0.0586009618286196 0.3116552922920345
N 0.3102636806343849 1.6732921735408806 -0.5557538963229510 0.0918298459672651
N 0.6018567762066065 0.5961926426612242 0.0828794004598671 0.5593901217632046
O 0.6046152913294122 -0.4764303971906407 -0.0687988026009497 -0.9963138680841535
N -0.1426358189201297 0.2364166294169574 -0.2523888151637325 0.9989733053171830
O -0.0633578486050414 0.2627671496279508 -0.3099235002680682 -0.8354521971080898
N -0.5462278305917354 -0.2673664338226857 -0.2685938664191356 0.2899344186932475
O 0.2812978247275977 0.1914469478589060 -0.5368328651277363 -0.8678253524624289
N -0.8199408429982469 -0.0476271527066969 0.4362521993273984 0.9219570073558310
O -0.9542012979937776 0.1668972648720703 0.3533692956844590 -0.9704818863270434
O -0.8911476552305304 -0.4373474373707248 0.4859711205424889 -0.3320651923316272
N -0.3670742835863063 0.0415695921300335 0.2305810029345285 0.9769593393400061
O 1.0075818403848169 0.4719903874111967 -0.0743945275309363 -0.1970026432733326
O 0.7364056879376301 -0.4871968544474113 -0.2012445971982539 -0.1946060569702309
N -0.4424687292890981 0.3003280267257045 0.0713069989460749 0.1283355164991325
N -1.1063651266921006 -0.2835277190110004 0.9465715546760736 0.1235072004109040
