25
s                      x[A]                      y[A]                      z[A]                      q[e]
N       -1.8856749378612996        1.2236957815214071       -0.8974618316782866        0.1158659338886357
O       -1.8762938609525495        0.0671734733486422        0.3706295050865699       -0.2341991647481463
N       -3.3602871153293812       -0.4147404002656773        0.0375704453635125        0.0569852111266852
N       -2.1488110904649118       -0.3738791591694977        0.0120067349569024        0.3189271149812888
O       -1.8664110843744262       -0.3489806091719751       -0.2994931843480307       -0.2877498234141676
N       -1.3712427684840311       -0.6807157535918482        0.4822353221777795        0.5692545008206258
O       -0.8741349599751422       -0.5831685646621054       -0.2572442939103550       -0.2058946535748549
O       -1.0734154721711249       -0.6396430746757827        0.4268024423860399       -0.9992971180892700
N       -0.5915633177715430       -0.5745499757646796        0.2048145873919336        0.6691943173322236
N       -0.9208656205509433       -1.7863473953616240        0.9709006643468863        0.0628076875181509
N        1.6354955325077192       -1.1431642999935863       -0.2189493890592875        0.7576134719858190
O        1.3750729990001331       -0.9075746793825257       -0.2399924789167497       -0.9235083265987739
N        1.1534300194931939       -0.5520026714609494       -0.1146800013759219        0.9955526175656415
O        1.5201194794442030       -1.0007710830979113       -0.1460011434907566       -0.9936641819349231
O        0.3720417118714433        0.1111178128882244        0.1820382897927256       -0.9934394819660318
N        0.6284615919063865       -0.1783760964190867       -0.0414019665004042        0.8475065253219278
N        0.1473011840332803        0.2834517480221815        0.1451448140567701        0.9207393412409772
O        0.3802401888387902        0.3393640720380578       -0.1735789553806164       -0.6738758902636315
N        2.1422471651025132        1.6553923309728966       -0.1374788546266703        0.1207489421105395
N        0.4778347955722231        0.9506763348657573        0.0597771535892118        0.4308753055723465
O        0.8923269984483446        0.9173359410101759        0.2679715476015861       -0.7095764258838037
N        1.0886943319589995        0.8901016608106260        0.0153566231806899        0.9977500474782615
O        0.9044759577952104        1.0127294044448905       -0.0616554007891638       -0.9963537733476465
O        0.2273915648031631        2.2004091915222443        0.7027448242297899       -0.1586318904925156
N        0.2400583907766114        2.1822233983555703        0.5262479286600329        0.3123697133706422

        RMSE         5.508446184E-01 kcal/mol

Coordinates in bohr
s                   x[bohr]                   y[bohr]                   z[bohr]                      q[e]
+       -3.5634091941975647        2.3124498879535378       -1.6959570699236941        0.1158659338886357
-       -3.5456815280781702        0.1269394675246744        0.7003882586275962       -0.2341991647481463
+       -6.3500223508772535       -0.7837457696648872        0.0709978521485155        0.0569852111266852
+       -4.0606644563250684       -0.7065292148468054        0.0226894407295062        0.3189271149812888
-       -3.5270057869864280       -0.6594777744304691       -0.5659600948590311       -0.2877498234141676
+       -2.5912732839493939       -1.2863663435732291        0.9112926869379226        0.5692545008206258
-       -1.6518756710410591       -1.1020288721877234       -0.4861212628273499       -0.2058946535748549
-       -2.0284612612324251       -1.2087502291829992        0.8065397257861091       -0.9992971180892700
+       -1.1178926564553959       -1.0857420995836771        0.3870434766694025        0.6691943173322236
+       -1.7401838211910527       -3.3757073421584050        1.8347363506406726        0.0628076875181509
+        3.0906386358493996       -2.1602674433885900       -0.4137543806583659        0.7576134719858190
-        2.5985113706221976       -1.7150675824331709       -0.4535200573223688       -0.9235083265987739
+        2.1796668417236207       -1.0431338695822703       -0.2167137946676192        0.9955526175656415
-        2.8726094941230644       -1.8911832613328501       -0.2759021752011998       -0.9936641819349231
-        0.7030569426835203        0.2099822340186122        0.3440025120549767       -0.9934394819660318
+        1.1876202890723146       -0.3370819695603328       -0.0782383777411436        0.8475065253219278
+        0.2783588957785613        0.5356461735442057        0.2742839470977970        0.9207393412409772
-        0.7185498187976799        0.6413051529720702       -0.3280166868124295       -0.6738758902636315
+        4.0482604350821889        3.1282381357220146       -0.2597973832860377        0.1207489421105395
+        0.9029768968456306        1.7965179068503163        0.1129624488430387        0.4308753055723465
-        1.6862536414192038        1.7335136935483706        0.5063928343820833       -0.7095764258838037
+        2.0573341217407788        1.6820483627472422        0.0290198120233610        0.9977500474782615
-        1.7092118472941011        1.9137812135988568       -0.1165118216468559       -0.9963537733476465
-        0.4297077807172740        4.1581707359171229        1.3279952538773034       -0.1586318904925156
+        0.4536446126859272        4.1238045674578867        0.9944644592569315        0.3123697133706422
