21
s                      x[A]                      y[A]                      z[A]                      q[e]
N 1.8787779130495046 1.3447237288287219 0.7362890457950468 0.0707249461841811
O 1.6688456486506560 0.0318057926099164 -0.1451893990482005 -0.3496602100029151
N 1.4398221067818957 0.0843831437721783 0.3491786105902319 0.9824851761690530
N 3.0478077184769909 -0.6178424597601672 0.1037877031294379 0.1071394941056757
O 1.4684571279813055 -0.0698695487075087 0.4535948919632447 -0.8194842575378962
N 0.5336102231415294 -0.5952937192779464 -0.0881545640862980 0.3116552922920345
N 0.8493083797356926 -1.8560833786731710 -0.7166289838022448 0.0918298459672651
N 1.3024741509831668 -0.9024707954719353 -0.2586337267456798 0.5593901217632046
O 0.9960734106484193 -0.7300384767309939 -0.2076624829309722 -0.9963138680841535
N -0.7644311906774187 0.8694241039632065 0.0047002823270583 0.9989733053171830
O -0.7408302114980386 0.9673686024656516 0.0156971545577678 -0.8354521971080898
N -0.6075239211720753 1.7292228652409556 -0.0964340711381094 0.2899344186932475
O -0.5981554826936384 1.3416923070236424 -0.1052370418248109 -0.8678253524624289
N -0.5043291390060947 -0.4121461515400267 -0.0217222455344490 0.9219570073558310
O -0.6109873325001026 -0.2418584792475273 0.1515226544407189 -0.9704818863270434
O -0.8199001199070453 -0.2715922572865046 -0.4891516622900012 -0.3320651923316272
N -0.6236486851104491 0.3315778749880039 -0.0790602639125620 0.9769593393400061
O -1.3551773017935909 -0.5846108379249596 0.6435577161875028 -0.1970026432733326
O -1.5667965541946960 -0.5798649946739196 -0.3385311721084906 -0.1946060569702309
N -2.7169084927318266 -0.1043751962663042 0.3916701756649721 0.1283355164991325
N -1.5861584276354705 -1.9599193452539734 0.2087833725988762 0.1235072004109040
