21
s                      x[A]                      y[A]                      z[A]                      q[e]
N 0.2058888764376988 1.4723223012221542 -0.0744785102566570 0.0707249461841811
O 0.4582052202049076 -0.0098436602627770 0.0515920001307682 -0.3496602100029151
N 0.3493672670355179 -0.4530003818339136 0.3537749879820806 0.9824851761690530
N -0.4744604721399833 -0.1013640706413561 -0.0110154902993371 0.1071394941056757
O 0.1665324755420393 -0.4616191998461853 0.3987308441531539 -0.8194842575378962
N -0.4583594951154111 -0.4884971228560552 0.4114105285970430 0.3116552922920345
N 0.2108999390604746 -1.4874116258194010 -0.3802676457001135 0.0918298459672651
N 0.0507073056626663 0.6165822006997982 0.5628818894851531 0.5593901217632046
O -0.5358987288770302 -0.5411558358509644 -0.0765204931984914 -0.9963138680841535
N 0.3057413139398787 -0.0853425934237899 -0.4371566642733135 0.9989733053171830
O 0.2068073629606200 -0.0842855895584047 -0.4593483279811087 -0.8354521971080898
N 0.3094236479092406 -0.2864171078750510 0.3094597820736787 0.2899344186932475
O -0.1433634708034854 -0.2212607649822021 -0.6436587206094054 -0.8678253524624289
N -0.1821999075782053 -0.2009903392989364 0.3900482033147591 0.9219570073558310
O 0.0449329111034538 -0.3010848924054935 0.2947739118911864 -0.9704818863270434
O -0.0270468723743434 0.3567957071144556 0.4269254545938778 -0.3320651923316272
N 0.2398260575200038 0.0231644165708816 -0.1952958706892469 0.9769593393400061
O 0.6684784873354452 -0.5539092550064052 -0.3905108064502439 -0.1970026432733326
O 0.4512011940235346 0.4220301563412606 -0.2905425922756458 -0.1946060569702309
N 1.2854605823775436 -0.2381047777137095 0.4733945952268649 0.1283355164991325
N 0.0317838150227637 -0.3462660134434552 0.9072509161001548 0.1235072004109040
