25
s                      x[A]                      y[A]                      z[A]                      q[e]
N -2.3460246922584083 -0.2579340578807994 -0.4759463157106258 0.1158659338886357
O -1.2373552854621117 1.0401053445563408 -0.4535484716127083 -0.2341991647481463
N -2.3759943690245016 2.1337972374662848 -0.1569934573367871 0.0569852111266852
N -1.4935720294454453 1.3325860844195172 0.0085925228528725 0.3189271149812888
O -1.4560021154772220 1.0156173388079450 0.2979877774672228 -0.2877498234141676
N -0.6287995820418727 1.2017634907701018 0.2979430232267641 0.5692545008206258
O -0.3319914615494575 0.6370493930029248 -0.3769044930890646 -0.2058946535748549
O -0.5967777862197993 0.9003247061020272 0.3231775150983307 -0.9992971180892700
N -0.3821979051731977 0.4244611273036361 0.0950799112720421 0.6691943173322236
N 0.4588745384250338 1.8718446043953012 0.5597919587155940 0.0628076875181509
N -0.5644058800097899 -1.9479188033911192 -0.0648476668378410 0.7576134719858190
O -0.3615605564333471 -1.6466593893066694 -0.0745436100285959 -0.9235083265987739
N -0.0862784314465004 -1.3588086458645865 0.0864581335427555 0.9955526175656415
O -0.4563381764193184 -1.7962820099809449 0.0227674464067295 -0.9936641819349231
O 0.3576573347259098 -0.4584640298599069 0.3918551895211789 -0.9934394819660318
N 0.1659303056283549 -0.7870427917784757 0.1444097828804393 0.8475065253219278
N 0.5234863283826877 -0.2137421771400056 0.3517411375725784 0.9207393412409772
O 0.6693789406528472 -0.4834807450070821 0.0897577849091354 -0.6738758902636315
N 2.8542186505968381 0.1788315481820594 -0.4301433968471368 0.1207489421105395
N 1.2259751471697931 -0.4592613868866027 0.4347389165314307 0.4308753055723465
O 1.4782710620562107 -0.2739774357810694 0.0042428118711939 -0.7095764258838037
N 1.6098213245740678 0.0106583976976323 -0.0726498090468406 0.9977500474782615
O 1.6087850903132248 0.0104022275068642 0.1675446890236481 -0.9963537733476465
O 2.0610012105097004 -1.2287557312746560 1.0238794068023513 -0.1586318904925156
N 2.0651377139419500 -1.0640943457127954 1.0830013860089869 0.3123697133706422
