25
s                      x[A]                      y[A]                      z[A]                      q[e]
N       -2.3722289898665778       -0.1254553979585289       -0.4298290692396177        0.1158659338886357
O       -1.1777245528057454        1.0982738168550725       -0.4261236774446858       -0.2341991647481463
N       -2.2339027792617041        2.2574354293300285       -0.0809578697110235        0.0569852111266852
N       -1.4021531525989728        1.3968174538207752        0.0473152592448495        0.3189271149812888
O       -1.3821317473193744        1.0705498586405928        0.3291424561251101       -0.2877498234141676
N       -0.5417246298591570        1.2026626859426774        0.3141930557236958        0.5692545008206258
O       -0.3045574505689465        0.6328711365733106       -0.3752164105479653       -0.2058946535748549
O       -0.5337879639885172        0.8986122781582787        0.3336050526063346       -0.9992971180892700
N       -0.3517052141733925        0.4138277541218613        0.0927091300185757        0.6691943173322236
N        0.5911797937636990        1.7937675586786974        0.5671457440860987        0.0628076875181509
N       -0.6913883037068910       -1.9403850183652636       -0.1065615435756937        0.7576134719858190
O       -0.4784317001657273       -1.6444708154532293       -0.1151698920002643       -0.9235083265987739
N       -0.1725149872703885       -1.3866878287347315        0.0405782995409705        0.9955526175656415
O       -0.5805572495463845       -1.7889345953605755       -0.0180972362262624       -0.9936641819349231
O        0.3298023858301850       -0.5188273058810096        0.3514514111493183       -0.9934394819660318
N        0.1141715254018725       -0.8324378196081303        0.1009571451971853        0.8475065253219278
N        0.5139783670982736       -0.2874085109344251        0.3080677365014700        0.9207393412409772
O        0.6310985327142852       -0.5581384848617204        0.0393896376422480       -0.6738758902636315
N        2.8648617856762932        0.1754396687105317       -0.3767578362720725        0.1207489421105395
N        1.1996286078853944       -0.5792591300782663        0.3654129912525282        0.4308753055723465
O        1.4717849839565040       -0.3141874507348774       -0.0410548833738543       -0.7095764258838037
N        1.6132172679364820       -0.0209939896888342       -0.0706694091919231        0.9977500474782615
O        1.6050859862098144       -0.0647068810530614        0.1696660516350952       -0.9963537733476465
O        2.0182154799876155       -1.4395696631560175        0.8107640124054394       -0.1586318904925156
N        2.0245490255784366       -1.2861058730523962        0.8955864884069225        0.3123697133706422

        RMSE         3.760277639E+00 kcal/mol

Coordinates in bohr
s                   x[bohr]                   y[bohr]                   z[bohr]                      q[e]
+       -4.4828630977193056       -0.2370763431019408       -0.8122592216233272        0.1158659338886357
-       -2.2255768560301545        2.0754367246173167       -0.8052570459433873       -0.2341991647481463
+       -4.2214644437036943        4.2659347073390634       -0.1529882014543322        0.0569852111266852
+       -2.6496854443593358        2.6396024349806022        0.0894128815278021        0.3189271149812888
-       -2.6118504717340993        2.0230460364783132        0.6219890983369775       -0.2877498234141676
+       -1.0237111858488208        2.2727030977391607        0.5937388258384951        0.5692545008206258
-       -0.5755301710429692        1.1959531208307743       -0.7090562537130002       -0.2058946535748549
-       -1.0087130610040433        1.6981310986928762        0.6304221834949235       -0.9992971180892700
+       -0.6646265316832006        0.7820211184036198        0.1751948650645690        0.6691943173322236
+        1.1171679011180329        3.3897294186338423        1.0717501295417204        0.0628076875181509
+       -1.3065345403508832       -3.6667962626518062       -0.2013721328641012        0.7576134719858190
-       -0.9041048830503812       -3.1075994625149059       -0.2176395537790559       -0.9235083265987739
+       -0.3260060784778778       -2.6204602178144127        0.0766818727692253        0.9955526175656415
-       -1.0970942017917427       -3.3805964415882079       -0.0341988200953500       -0.9936641819349231
-        0.6232361847416231       -0.9804415145242437        0.6641469134778875       -0.9934394819660318
+        0.2157529143352905       -1.5730794955326346        0.1907813548307603        0.8475065253219278
+        0.9712783482257619       -0.5431233717917150        0.5821636500774859        0.9207393412409772
-        1.1926033850082864       -1.0547288764666414        0.0744356273248732       -0.6738758902636315
+        5.4138041622182564        0.3315329254039580       -0.7119691261742984        0.1207489421105395
+        2.2669695211676344       -1.0946411115188743        0.6905304761515954        0.4308753055723465
-        2.7812705352391363       -0.5937282339446921       -0.0775824856891966       -0.7095764258838037
+        3.0485388172592711       -0.0396728907925822       -0.1335458288206467        0.9977500474782615
-        3.0331729217469294       -0.1222782836228622        0.3206223703781164       -0.9963537733476465
-        3.8138745193360077       -2.7203924018824517        1.5321219358235736       -0.1586318904925156
+        3.8258431859057604       -2.4303878684118621        1.6924131847495958        0.3123697133706422
