21
s                      x[A]                      y[A]                      z[A]                      q[e]
N 1.7680275048861200 0.0972619095000390 -1.8081710498472034 0.0690680479201058
O 1.8498247239719459 -0.4848420156341176 0.0314035901679267 -0.3117950550350966
N 1.9852921074187326 -0.1419249626222787 0.1338123040821380 0.5776243102962968
N 3.3435367983068960 -0.1505955910998888 0.1058435942304414 0.0604184539076988
O 1.8411733918930988 0.1808182623256495 0.1268460764594104 -0.3968494342195521
O 0.7758378767248924 -0.5351964299713080 0.5307064093884570 -0.9828651838991298
N 0.5726745217767601 -0.5985553841065556 0.4668357467417377 0.7759263489545838
N 1.1870438250168751 -0.2597636547890612 1.2973316677658195 0.9970342621901004
O 1.1921390874371092 0.0184788775618769 1.3340805558699571 -0.3970377457969525
O 1.2338323982470769 -0.5292990462920774 1.2794496103694213 -0.3893757401670396
N -1.0542197207305319 1.6918423857157050 -0.1756483029211668 0.1691966627363242
O -0.9249934316882703 1.2686157386180774 -0.0932720150446734 -0.6800109224217911
O -0.4775853262988097 -0.4268376478511945 -0.2714716236150216 -0.9821368279659007
N -0.4134065303735225 -0.5735386405298730 -0.1259393588106986 0.8921713087406896
O -0.8590650944619684 -0.4128014356015699 0.3164678463213002 -0.3335771210350215
N -0.6777792192228339 0.2179695592359992 -0.0507319298262917 0.9988617281482304
N -2.7698473993424453 -0.7696446410253888 -0.4895170722392601 0.0655379221577991
N -1.4728878008118556 -0.7429989994861290 -0.1392062402176829 0.9908754307264420
O -1.2592657114337213 -0.7821175444000936 -0.4472823669470580 -0.6595771554465193
O -1.5159005944100772 -0.7922085186187446 0.2275449201828049 -0.5578053818499882
N -0.8523391473038291 -2.3199206716101259 0.0070245600876175 0.0943160920587207
