23
s                      x[A]                      y[A]                      z[A]                      q[e]
N 1.4090276619462332 -1.4202215007210537 0.7132846450310356 0.2856065124296451
O 1.4093854053645858 -1.2249103507768622 0.6259400055984198 -0.2980193526493612
N 2.6365473475036256 -0.2278581015350544 -0.2995518585904625 0.9235469647741466
O 2.5506811313244535 -0.2588851258682290 -0.2830889630441988 -0.9987019282037162
O 1.4455400799885352 -0.1661827464015186 -0.0255394177289260 -0.9994297377915048
N 1.6668293594742407 0.1054527567106747 -0.2239202495780439 0.3910255639585828
N 1.9142607236375218 -0.4680159982843968 0.0005983223855238 0.3788084070601841
N 1.0958381163544204 -0.5005061339484287 0.2814824935326777 0.3521750120262308
N 1.1388068330446823 0.6637676169980253 -0.2444256537357106 0.5091785922378865
N 0.5665479602685249 0.7665298093483552 0.1587677877282411 0.9946620798872232
O 0.7670384975919886 0.7326208713232256 0.1732205460328669 -0.5088390984708862
O 0.8592889917865201 0.6412923738339356 -0.0610915576265350 -0.9513197152299744
N 1.0637594564766137 1.6285029168534801 -0.8687530851664347 0.0534150746794947
N 0.6355198568827360 1.7567364006986281 -0.8031012552798645 0.0449830180293293
O 0.6670935274137340 1.0276524974286294 -0.0304974729082804 -0.1594766348608674
O -0.8014509708523427 0.7568895912652146 1.2455850971885767 -0.2085098172073890
N -0.9611648932482074 0.9391910071618017 1.0209230951317689 0.7433887315217406
O -0.9719948651753443 1.0722413368813228 0.9281282279305295 -0.4563903046399361
N -0.5685606860706807 0.0102315913673753 -0.1296605345282114 0.2740207269363132
N -1.3117343505238894 -0.0865556650726191 -0.0176128366185014 0.2947455612059413
O -1.4879099686655364 -0.6128576771283762 -0.5149486038825013 -0.8294346811293033
N -1.7138711375126470 -0.5958229883226118 -0.3797551372710264 0.8271270632704910
O -1.8820645008196408 -0.4487299428021307 -0.1211918689857258 -0.6625620378342709
