23
s                      x[A]                      y[A]                      z[A]                      q[e]
N        1.4075848598950234       -1.4211224765164456        0.7147846940823301        0.2856065124296451
O        1.4105608286664606       -1.2230111906469017        0.6232294658980582       -0.2980193526493612
N        2.6358999429660983       -0.2265247616707711       -0.2973368686150516        0.9235469647741466
O        2.5465672909772601       -0.2609391106044199       -0.2830606715981466       -0.9987019282037162
O        1.4445455277868253       -0.1689180071786557       -0.0284496434139453       -0.9994297377915048
N        1.6672986355372101        0.1092340808307996       -0.2212301247644090        0.3910255639585828
N        1.9145561908720812       -0.4666072450089382        0.0027509416881898        0.3788084070601841
N        1.0946637153038687       -0.4997596648359567        0.2839539279968329        0.3521750120262308
N        1.1391890048009334        0.6694591319427625       -0.2421037609288569        0.5091785922378865
N        0.5664228292463653        0.7699388684939603        0.1586308728326476        0.9946620798872232
O        0.7661660072254642        0.7273890601159470        0.1721201815411414       -0.5088390984708862
O        0.8579423261639481        0.6350549688116752       -0.0630710854276927       -0.9513197152299744
N        1.0643535070456367        1.6309581762492305       -0.8679285001748197        0.0534150746794947
N        0.6359374063001855        1.7586758858446045       -0.8025767039245707        0.0449830180293293
O        0.6663343581056701        1.0236295200328489       -0.0310024349229709       -0.1594766348608674
O       -0.8021387992655533        0.7565750158129553        1.2449114211795740       -0.2085098172073890
N       -0.9584467867309329        0.9384636308351136        1.0196385104628456        0.7433887315217406
O       -0.9731444857121498        1.0697038742643370        0.9277471957515998       -0.4563903046399361
N       -0.5688086210622246        0.0113836751129586       -0.1269531785951580        0.2740207269363132
N       -1.3104900369307446       -0.0866232347212141       -0.0161537844360980        0.2947455612059413
O       -1.4866668213677710       -0.6110029876047034       -0.5155139411823870       -0.8294346811293033
N       -1.7119985163252833       -0.5956420089757664       -0.3775804796551401        0.8271270632704910
O       -1.8825187943830637       -0.4471213794786109       -0.1219694083954824       -0.6625620378342709

        RMSE         7.390301785E-01 kcal/mol

Coordinates in bohr
s                   x[bohr]                   y[bohr]                   z[bohr]                      q[e]
+        2.6599498835425224       -2.6855322713484564        1.3507473104847607        0.2856065124296451
-        2.6655736494784539       -2.3111561986927347        1.1777330038626892       -0.2980193526493612
+        4.9811289863158352       -0.4280697601923641       -0.5618852486836847        0.9235469647741466
-        4.8123147399960953       -0.4931034544629022       -0.5349071462086563       -0.9987019282037162
-        2.7297954232720310       -0.3192087712257786       -0.0537620344192916       -0.9994297377915048
+        3.1507377905148557        0.2064224963363341       -0.4180643465055984        0.3910255639585828
+        3.6179868525479959       -0.8817599012212924        0.0051985263777833        0.3788084070601841
+        2.0686146214004508       -0.9444088950905554        0.5365951561619862        0.3521750120262308
+        2.1527552242066270        1.2650944115585576       -0.4575098020988572        0.5091785922378865
+        1.0703840184825950        1.4549735947984759        0.2997689046960326        0.9946620798872232
-        1.4478439202916709        1.3745661102733198        0.3252600037768392       -0.5088390984708862
-        1.6212760278880738        1.2000799656652290       -0.1191870778936934       -0.9513197152299744
+        2.0113366289868022        3.0820642751872240       -1.6401471618097860        0.0534150746794947
+        1.2017475308413501        3.3234157676932381       -1.5166501650900934        0.0449830180293293
-        1.2591894448024570        1.9343794467959319       -0.0585861112267443       -0.1594766348608674
-       -1.5158226452154886        1.4297195732504111        2.3525416364838749       -0.2085098172073890
+       -1.8112019327465512        1.7734392409811248        1.9268375317445445        0.7433887315217406
-       -1.8389765584954718        2.0214473577007732        1.7531881136320360       -0.4563903046399361
+       -1.0748925116069277        0.0215120282646819       -0.2399067383011836        0.2740207269363132
+       -2.4764672599402222       -0.1636941897243440       -0.0305262284739085        0.2947455612059413
-       -2.8093931321900230       -1.1546283084093936       -0.9741801626900869       -0.8294346811293033
+       -3.2352083230449282       -1.1256002657816919       -0.7135236968672163        0.8271270632704910
-       -3.5574449474110490       -0.8449369520514747       -0.2304887775515784       -0.6625620378342709
