21
s                      x[A]                      y[A]                      z[A]                      q[e]
N -1.6995181938519583 0.1547937212415988 -1.7756839670192655 0.0707249461841811
O -1.6312023771455453 0.1975077270741630 -0.1924866005297113 -0.3496602100029151
N -1.4530059563011306 -0.2465169818983973 -0.4583175267258438 0.9824851761690530
N -3.1282676604581252 -0.1537820289318222 0.0887774553860756 0.1071394941056757
O -1.5212274397213357 -0.4045472372942590 -0.3800173958625964 -0.8194842575378962
N -0.6639704762179541 -0.2505585066297273 0.2925015676511922 0.3116552922920345
N -1.1075130126220738 -0.3515216986789229 1.8033627974867845 0.0918298459672651
N -1.4445819305480159 -0.3090973559029512 0.6118870024133400 0.5593901217632046
O -1.1170512293027766 -0.2371118434210291 0.4964086809391739 -0.9963138680841535
N 0.9636511444733150 0.7736386951536437 -0.1359759780970866 0.9989733053171830
O 0.9644886907449169 0.8742808408996225 -0.1518570756777495 -0.8354521971080898
N 1.0630351208720668 1.6460472615275397 -0.0784059010853005 0.2899344186932475
O 0.9515520277247566 1.2772412355042078 -0.0386922681144572 -0.8678253524624289
N 0.3779006366725290 -0.3883216591965645 0.0346233230987408 0.9219570073558310
O 0.4920326155646814 -0.2591927810696594 -0.1683447573495448 -0.9704818863270434
O 0.7975327142937063 -0.3260346282105484 0.4298377139891245 -0.3320651923316272
N 0.7003218924299797 0.2947564063610613 0.0126138663796725 0.9769593393400061
O 1.1163147539812894 -0.8495476608058796 -0.5989704647291538 -0.1970026432733326
O 1.3889928182170934 -0.8084714156237163 0.3672676709097642 -0.1946060569702309
N 2.5725789854704941 -0.7391949199480196 -0.4565157483124745 0.1283355164991325
N 0.9986490793288698 -2.1867712630271483 -0.0216188294489878 0.1235072004109040
