21
s                      x[A]                      y[A]                      z[A]                      q[e]
N 1.9006778942927196 -1.4360968695252370 -0.4192121817526026 0.0707249461841811
O 1.6297638432672219 -0.0396158205198827 0.2817513533220026 -0.3496602100029151
N 1.4921982272821368 -0.1141076499300112 -0.2427528473780459 0.9824851761690530
N 3.0662831174629703 0.5633122198523665 0.1883959655115519 0.1071394941056757
O 1.5514449012576095 0.0301515933857862 -0.3497002421781713 -0.8194842575378962
N 0.5396543651829934 0.5655986926997636 -0.0950136398549306 0.3116552922920345
N 0.8836998002650850 1.9104375755842846 0.1257299930785752 0.0918298459672651
N 1.3291337735599593 0.8459906651700541 0.0185235829696097 0.5593901217632046
O 1.0157825069037232 0.6830887414233661 -0.0141484833950191 -0.9963138680841535
N -0.7875291500605014 -0.8603533958818068 -0.1534941827985327 0.9989733053171830
O -0.7668225856556693 -0.9578567189998504 -0.1746150827785376 -0.8354521971080898
N -0.6424423696401935 -1.7277658677886980 -0.1246216189675710 0.2899344186932475
O -0.6222973686351456 -1.3422703424212552 -0.0928267076020234 -0.8678253524624289
N -0.4940015527980268 0.4093240796520941 -0.0698497390681976 0.9219570073558310
O -0.6206331785769874 0.2528630714344156 -0.2441506332514991 -0.9704818863270434
O -0.7647199267063403 0.2432329911152093 0.4152177633494010 -0.3320651923316272
N -0.6256500109862407 -0.3345053948939872 -0.0493089930156538 0.9769593393400061
O -1.4776526904189087 0.6586879117386701 -0.4645994179693448 -0.1970026432733326
O -1.4762846512930528 0.5386936497244745 0.5330258748882697 -0.1946060569702309
N -2.7666192246314605 0.1517184768212979 0.0167159641427558 0.1283355164991325
N -1.5771592150631939 1.9734685420092373 0.1658608265484141 0.1235072004109040
