21
s                      x[A]                      y[A]                      z[A]                      q[e]
N -0.1801520113534169 1.5449342035691331 0.1113987499653570 0.0707249461841811
O -0.2931162839555874 0.0564838469795024 0.6468034845933678 -0.3496602100029151
N 0.1765375836356053 0.2344376848012305 0.4292358763347558 0.9824851761690530
N 0.0515577687020090 0.5373027450514963 -0.1126711441439449 0.1071394941056757
O 0.2449638017685900 0.1100974064210452 0.3042719184985402 -0.8194842575378962
N 0.5288250460465018 0.4736866394451026 0.5505624935272043 0.3116552922920345
N 1.6837444923579747 -0.4357724565276828 -0.4764897869548056 0.0918298459672651
N 0.8259996725446380 0.6033214416899858 -0.2302512837951203 0.5593901217632046
O 0.6568705329805202 0.5386844788966996 0.0747256238341862 -0.9963138680841535
N -0.0458191958968784 0.1044597437203481 -0.3947765111275148 0.9989733053171830
O -0.0973153876972966 0.1281778075012739 -0.3101163202169284 -0.8354521971080898
N -0.5255552005663274 0.0968041158768725 0.3428432773818795 0.2899344186932475
O -0.3984085973409295 0.0822969698945770 -0.0227341036693129 -0.8678253524624289
N 0.1783646502475728 0.1432680910040085 -0.3119925681454738 0.9219570073558310
O 0.2728077877659026 0.2687941207213977 -0.0970039007881069 -0.9704818863270434
O 0.2253224898560324 -0.4039022035630658 -0.1260764590874822 -0.3320651923316272
N -0.0064544483612898 0.0658446991737615 0.4166246462971551 0.9769593393400061
O 0.4253854427218153 -0.3261903819063000 0.3293193128793998 -0.1970026432733326
O 0.5091635287847898 0.6444163754816155 0.0832289347555010 -0.1946060569702309
N 0.7505650448629849 0.4976146536316626 0.4155551795390914 0.1283355164991325
N -0.5446553648807951 0.2204437103079718 0.3390008006595839 0.1235072004109040
