25
s                      x[A]                      y[A]                      z[A]                      q[e]
N 0.0633940031493059 -0.0059235481755608 0.2429206453350392 0.1158659338886357
O -0.1729941173342937 0.4504698905358636 0.3102145560585060 -0.2341991647481463
N -0.0847455762118797 -0.0017925378594398 -0.3925268523158638 0.0569852111266852
N -0.5148555463919138 -0.0443463964065547 0.1388189625599840 0.3189271149812888
O -0.2296556837374523 -0.3314148614742601 0.2744833281261951 -0.2877498234141676
N 0.0293318758284069 0.1318741400019498 -0.5567157062801575 0.5692545008206258
O -0.1556811591933936 -0.5009770235602931 0.0448423226546285 -0.2058946535748549
O -0.0678927289134456 0.1468436839376933 -0.2621690199619422 -0.9992971180892700
N -0.1869663409181990 -0.0082165158062415 0.2386987119553266 0.6691943173322236
N 0.0185579037795903 -0.0303934383155204 0.3873105904943412 0.0628076875181509
N 0.0567405264010304 0.0038246527928068 0.2845052780543537 0.7576134719858190
O 0.0316353895848758 -0.0736108800692748 -0.0577995243929487 -0.9235083265987739
N 0.1019295625288367 -0.0102050119103118 -0.4838531374112185 0.9955526175656415
O 0.0641669385137046 0.0505848774335165 0.0931070104405037 -0.9936641819349231
O -0.0404163470898581 0.1095042032963150 -0.1217154320180951 -0.9934394819660318
N -0.0317579010340247 -0.0508608068992434 0.2934810366384754 0.8475065253219278
N -0.0839743483427255 0.0244491416618577 -0.3988828797490255 0.9207393412409772
O 0.1563421895718616 -0.2557096204420833 -0.2272044630932630 -0.6738758902636315
N -0.0661255575676162 0.0239645291621939 0.2186036181304701 0.1207489421105395
N 0.2670307628197828 0.0733780422244719 -0.4891217682747254 0.4308753055723465
O 0.3493430030747900 -0.2081050396395105 -0.1257597668515771 -0.7095764258838037
N 0.4504921284370562 -0.0073231031969155 0.0979462854284720 0.9977500474782615
O 0.3058483487529682 0.1245186570149292 -0.0378649952474518 -0.9963537733476465
O -0.0315928124505372 -0.3668584366486542 -0.1413922744778796 -0.1586318904925156
N -0.0326084368309621 -0.2026849449688851 -0.0869497182160217 0.3123697133706422
