25
s                      x[A]                      y[A]                      z[A]                      q[e]
N 0.0895676056789554 -0.0129277065167603 0.2163630575305201 0.1158659338886357
O -0.1957091207821113 0.4641869814240428 0.3294674237586442 -0.2341991647481463
N -0.0900732489483976 0.0013465216074785 -0.3977942427385206 0.0569852111266852
N -0.4880713247262314 -0.0568739539421969 0.1403457882975004 0.3189271149812888
O -0.2126549343541531 -0.3236208196850000 0.2774193979243923 -0.2877498234141676
N -0.0227672251688101 0.1411112125002513 -0.5169910068953666 0.5692545008206258
O -0.1355505437899796 -0.4754305672581939 0.0284845888013427 -0.2058946535748549
O -0.0435245589244122 0.0850224656311102 -0.2075749463729405 -0.9992971180892700
N -0.1820426143546804 -0.0115068835087052 0.2689267891220664 0.6691943173322236
N 0.0325706929995123 -0.0653813540343942 0.4387888350044247 0.0628076875181509
N 0.0146823078715240 -0.0007870665464799 0.1573956900328251 0.7576134719858190
O -0.0131770285615635 -0.0614978699098756 -0.1412448195395087 -0.9235083265987739
N 0.0501519920560879 -0.0156274078281682 -0.5706982884983989 0.9955526175656415
O 0.0140517506600244 0.0279901945353285 -0.0187098741861798 -0.9936641819349231
O -0.0718047590348508 0.0889707088416130 -0.1166786261927079 -0.9934394819660318
N -0.0608595425818526 -0.0572552083257831 0.2618649523705042 0.8475065253219278
N -0.1020459184424389 0.0040563757311495 -0.3700947311782321 0.9207393412409772
O 0.1295407393036314 -0.2086820790494820 -0.2236470607432794 -0.6738758902636315
N -0.0588834817038609 0.0056964817979035 0.2169792262333351 0.1207489421105395
N 0.2916225950684180 0.0748576183077803 -0.4984192270472617 0.4308753055723465
O 0.3733387866024148 -0.1784691019576614 -0.1588556120292771 -0.7095764258838037
N 0.4783035881507537 -0.0079907256694100 0.0369447903446931 0.9977500474782615
O 0.3387172854167528 0.1041579992157804 -0.0887234893256954 -0.9963537733476465
O -0.0208144115815473 -0.3430671230491329 -0.0797558420166111 -0.1586318904925156
N -0.0241437340654603 -0.1860262887916009 -0.0626409199860738 0.3123697133706422
