21
s                      x[A]                      y[A]                      z[A]                      q[e]
N 1.9751358310441598 1.4311553596392967 -0.0774481072500245 0.0707249461841811
O 1.6132720764898136 -0.0886365975398781 -0.3326971030047595 -0.3496602100029151
N 1.5024507036604682 0.1387723529085247 0.1527230565825622 0.9824851761690530
N 3.0373803748643660 -0.6857574392348315 -0.1307485124491245 0.1071394941056757
O 1.5605114472452308 0.0275668186221131 0.2944342909897555 -0.8194842575378962
N 0.4889069173818164 -0.6557654512999195 0.1260804848432904 0.3116552922920345
N 0.7343206358821024 -2.0165728466419361 -0.0257259018011418 0.0918298459672651
N 1.2457446975142650 -1.0100912240509428 -0.0036546287084673 0.5593901217632046
O 0.9494548629579846 -0.8186607267515926 0.0332583293370036 -0.9963138680841535
N -0.7252057716328737 0.8902799548013047 -0.0652779997638401 0.9989733053171830
O -0.6971132090653180 0.9881906188146545 -0.0641486003886039 -0.8354521971080898
N -0.4983629662897209 1.7335136965355276 0.1332471167759850 0.2899344186932475
O -0.5111323223003106 1.3469518920589771 0.1111533561897012 -0.8678253524624289
N -0.5264635411244737 -0.4106774763083068 0.1312388408779974 0.9219570073558310
O -0.6335870782429005 -0.2384160556510713 0.3035865390749730 -0.9704818863270434
O -0.8021141848553494 -0.2415813028020527 -0.3499041734615701 -0.3320651923316272
N -0.6003904431262264 0.3399416751619736 0.0860176964690426 0.9769593393400061
O -1.4926763620269969 -0.5601767045827674 0.6093148764602603 -0.1970026432733326
O -1.5408679902713676 -0.5003124205034992 -0.3925032497165247 -0.1946060569702309
N -2.7744511826866209 0.0131261703032661 -0.0498539789228840 0.1283355164991325
N -1.7277056949982734 -1.8776616241517909 0.2228983844581616 0.1235072004109040
