21
s                      x[A]                      y[A]                      z[A]                      q[e]
N -2.0679983041301573 1.5620185396182211 0.0490359968316154 0.0707249461841811
O -1.6945317552817303 0.0466808733394407 0.2816463298881602 -0.3496602100029151
N -1.5569274540234237 0.2648473148831763 -0.1698788890988369 0.9824851761690530
N -3.1019270744025524 -0.5611512081986432 0.0151368362680797 0.1071394941056757
O -1.6125192646562885 0.1769926347045410 -0.3380725456126575 -0.8194842575378962
N -0.6287829739528087 -0.3553492230595470 0.1224115097978481 0.3116552922920345
N -0.8204517294726318 -1.8868409893366846 -0.0118003801170325 0.0918298459672651
N -1.3900648510732276 -0.7109467642588913 0.0351694589070273 0.5593901217632046
O -1.0585822348375182 -0.5766784716570758 0.0634612599144763 -0.9963138680841535
N 1.3044708446887832 -0.4658787377548587 0.0828245277718883 0.9989733053171830
O 1.3577475221740332 -0.5356109550750673 0.1002074025902675 -0.8354521971080898
N 1.7769844441003768 -1.1998334856172606 0.0067742636688276 0.2899344186932475
O 1.5057289501569431 -0.9138399645225745 -0.0017051370307478 -0.8678253524624289
N 0.2340824367495276 0.2797020156992360 0.0749322105532271 0.9219570073558310
O 0.4352520154793136 0.2642531458842171 0.2435674569190074 -0.9704818863270434
O 0.5190219515795185 0.3748222621367419 -0.4165941370228476 -0.3320651923316272
N 0.8257061400821669 -0.1798593984306809 0.0111587593196970 0.9769593393400061
O 0.8103549371076951 1.1051154160437338 0.5152821060471758 -0.1970026432733326
O 0.8405606397909887 1.0796105718983806 -0.4889028049705350 -0.1946060569702309
N 2.0898930051606111 1.6078977873320464 0.0012881615411555 0.1283355164991325
N -0.0059462246771302 2.1900625386873411 -0.0068148887153823 0.1235072004109040
