21
s                      x[A]                      y[A]                      z[A]                      q[e]
N 1.7666928966776969 0.6360340049799007 -1.6497581607467531 0.0690680479201058
O 1.8049157551676192 -0.5387777880407365 -0.1249350621545294 -0.3117950550350966
N 1.9690850894458176 -0.2665091668394053 0.0880186640434052 0.5776243102962968
N 3.3250481920881367 -0.3232092085453926 0.0407564550526520 0.0604184539076988
O 1.8526878290912365 0.0477236072155317 0.2006746147673948 -0.3968494342195521
O 0.7265697297282098 -0.6897482800410460 0.4723715046520441 -0.9828651838991298
N 0.5159222758590458 -0.7290981341295873 0.4136483697606479 0.7759263489545838
N 1.1666688466821158 -0.7282708828057907 1.1588151651361807 0.9970342621901004
O 1.1953142034118018 -0.4826737884914853 1.2916942834628897 -0.3970377457969525
O 1.1905198858718860 -0.9765050664986500 1.0449328407384146 -0.3893757401670396
N -0.9128696512840160 1.7364979541771872 -0.0495054551225742 0.1691966627363242
O -0.8192433597344082 1.2998801029628348 0.0071077140969149 -0.6800109224217911
O -0.5324745102933327 -0.4154678876760839 -0.2705215862723127 -0.9821368279659007
N -0.4765681763476355 -0.5745518364536257 -0.1349246900522976 0.8921713087406896
O -0.8900230059361010 -0.3984024649976753 0.3321926857451478 -0.3335771210350215
N -0.6661082867170826 0.2321520274456852 -0.0110791055063347 0.9988617281482304
N -2.8209482467238667 -0.5400140136178424 -0.5471935427923055 0.0655379221577991
N -1.5292203890321137 -0.6473409509482428 -0.1938446760453441 0.9908754307264420
O -1.3169643714874468 -0.6788764961480755 -0.5037292511568956 -0.6595771554465193
O -1.5790809396086030 -0.7221741251237824 0.1676688263034804 -0.5578053818499882
N -1.0399653738691301 -2.2764793331954145 -0.1744034516855822 0.0943160920587207
