30
s                      x[A]                      y[A]                      z[A]                      q[e]
N 2.6849755653306704 1.4552831738573226 -0.7537920655934010 0.2137068255539760
N 2.0010842277756491 0.9294695209216889 -0.6871091287545072 0.4524136045707061
O 1.9746537289674906 0.9697397309699731 -1.1927373661442275 -0.5303393512711568
N 1.6975594057451606 1.2043274030692968 -1.7965819589845817 0.2065219334641430
N 3.5910113755881712 0.2696955239962934 -1.0532955191806184 0.0640972179527254
N 2.6381313311405656 1.9953192521996488 -0.1916238821955021 0.2729192555687945
O 2.5886038916725749 1.5863486946764866 -0.4185467668255304 -0.5760168259183410
O 2.1089155255242229 -1.0806150547429081 0.3655541019824435 -0.7855321009151053
O 1.5949622147930669 -1.1266244914818777 0.6601759280663534 -0.7445427033607991
N 1.8774908674344837 -1.1284370540627582 0.5190464837987593 0.9977538426035523
N 1.8195762646534939 0.1938200892680969 -0.0978863355487974 0.2084365764815679
N 1.1848176958799288 -0.0236489586758273 0.2808341822176147 0.3300899125146088
N 0.1350183916832354 1.2185580248468659 0.2914306183845619 0.6266498413516267
O 0.3391296995627194 1.1142609210630388 0.2520657650304420 -0.5811225412727979
N 0.0056969293551067 1.8166365590726956 0.1776346266581965 0.5003074335780895
O -0.0021963939361092 1.6737731110139678 0.2182570235992307 -0.5967490130385100
N 0.0918012704432937 0.7196096934118653 1.5120588488705422 0.9708061175491041
O 0.0418287975990404 0.3628297447594507 1.5706325479455314 -0.1568654630532827
O 0.0796455320429681 0.8237605360841957 1.4058244764184340 -0.7813807259506527
N -0.6531624764995653 -0.4493024960063771 0.1895044045725079 0.1400529194232831
N -0.8052693137042358 -0.0537914274294584 -0.3433564073828873 0.1778327620465852
N -1.0704898649181072 -0.1981505737567545 -0.8085995727334214 0.7120624373414439
O -1.0583888408911011 -0.1965501796404598 -1.0104240505684641 -0.9970019554920370
N -1.8180535123889234 0.3673925411416838 0.2694415575211347 0.9931708722557875
N -2.4822717052670189 0.7349004728955255 0.4735600419362179 0.8506195801821621
O -2.1986063435591197 0.6719977373861790 0.4480393967983440 -0.8089940633040810
O -2.3634927421289200 0.6023107431032184 0.3938806666577012 -0.9883399134133223
N -1.1969601504206799 -1.7809348305365975 0.7609327872864037 0.2529889584625400
N -1.2099642582508352 -1.0206076564572526 0.3988883276990924 0.5419198115726583
O -1.1754025670336641 -1.3876095570934899 0.6036462803789563 -0.9654652454832693
