25
s                      x[A]                      y[A]                      z[A]                      q[e]
N 0.0653702941748978 -0.0035741469568270 0.2443855220318821 0.1158659338886357
O -0.1738644054985837 0.4400598830072009 0.3070548514904511 -0.2341991647481463
N -0.0838815677788258 -0.0061522141602067 -0.3910042652820115 0.0569852111266852
N -0.5105810871060338 -0.0325443566243788 0.1396230418977330 0.3189271149812888
O -0.2397786568050211 -0.3395387039225054 0.2739763522161612 -0.2877498234141676
N 0.0398295450727360 0.1148469832213285 -0.5524047091952782 0.5692545008206258
O -0.1602595626815699 -0.4970909576558945 0.0424188754751055 -0.2058946535748549
O -0.0730353289711465 0.1671659520674198 -0.2748227184325613 -0.9992971180892700
N -0.1841798974329994 -0.0182173322435909 0.2438924571783647 0.6691943173322236
N 0.0174695157697285 -0.0207941107368868 0.3799640466340216 0.0628076875181509
N 0.0594903294620678 0.0046346345886446 0.2967992824856723 0.7576134719858190
O 0.0359242106617068 -0.0753693170949182 -0.0568127605012675 -0.9235083265987739
N 0.1083568225371125 -0.0099231338760687 -0.4751788371726923 0.9955526175656415
O 0.0693340123620216 0.0517240803423144 0.0967132016367682 -0.9936641819349231
O -0.0430827512049847 0.1161404963772175 -0.1240305954354959 -0.9934394819660318
N -0.0259104014870993 -0.0526840894104173 0.2968682705369791 0.8475065253219278
N -0.0780175873135226 0.0198629999220947 -0.4042222769715816 0.9207393412409772
O 0.1556572457212738 -0.2567497116636299 -0.2265700701794253 -0.6738758902636315
N -0.0645018169904804 0.0228428927256093 0.2205344431936975 0.1207489421105395
N 0.2613488296537529 0.0756594878361558 -0.4891270993442470 0.4308753055723465
O 0.3494928680223061 -0.2119454837840782 -0.1259190512240153 -0.7095764258838037
N 0.4479959727191011 -0.0079055227793102 0.1040816815977351 0.9977500474782615
O 0.3051744917834125 0.1261763710146560 -0.0349097089554379 -0.9963537733476465
O -0.0341341466486272 -0.3707244929617677 -0.1403154662933176 -0.1586318904925156
N -0.0307545437530918 -0.2017089591535965 -0.0950582171843182 0.3123697133706422
