21
s                      x[A]                      y[A]                      z[A]                      q[e]
N -1.9713523610664205 1.4531310681915981 -0.7178923621633987 0.0707249461841811
O -1.6985443250474832 0.1618433674081638 0.1642392157015560 -0.3496602100029151
N -1.5157929640867143 0.1892693989111228 -0.3282192042134490 0.9824851761690530
N -3.1111824402319650 -0.4577356104197734 0.0862460871676562 0.1071394941056757
O -1.5702263109511865 0.0459971043807518 -0.4498092778563955 -0.8194842575378962
N -0.6151695460612747 -0.3272652498846367 0.2949696222629455 0.3116552922920345
N -0.8739868881301098 -1.7517215157645458 0.6881589908875896 0.0918298459672651
N -1.3949310763885814 -0.6525801120331126 0.2958125430829860 0.5593901217632046
O -1.0611130593162732 -0.5320547612127672 0.2802951188924924 -0.9963138680841535
N 1.2914780623981106 -0.4923560461559200 -0.0129608714359917 0.9989733053171830
O 1.3422527260593500 -0.5687220292250854 -0.0095112046831320 -0.8354521971080898
N 1.7250747444520376 -1.2346608222156592 -0.1890898610280028 0.2899344186932475
O 1.4628289657081495 -0.9448013035767485 -0.1486542556386942 -0.8678253524624289
N 0.2557674527448872 0.2792919003794446 0.1610126209074266 0.9219570073558310
O 0.4732740620781521 0.2469726705874757 0.2949791727304998 -0.9704818863270434
O 0.4716362786571940 0.3893943588946072 -0.3639429392511853 -0.3320651923316272
N 0.8173523836019421 -0.1908230776852310 -0.0048714442943648 0.9769593393400061
O 0.9169379934574304 1.0432773321956164 0.5733592302453404 -0.1970026432733326
O 0.7890591378995511 1.1110269827666599 -0.4209818596851288 -0.1946060569702309
N 2.1148486337291748 1.5734059263981612 -0.0904218325963609 0.1283355164991325
N 0.0596836683629287 2.1803678644106386 0.2907766903068524 0.1235072004109040
