25
s                      x[A]                      y[A]                      z[A]                      q[e]
N -1.7177807496417594 0.8913734298869276 -1.2637714513198839 0.1158659338886357
O -1.8477323529043697 0.0932876864463258 0.2360095030452419 -0.2341991647481463
N -3.3318498458813957 -0.4112847226699258 -0.0727671934064865 0.0569852111266852
N -2.1288144588482703 -0.3860871384889591 0.0070219218651371 0.3189271149812888
O -1.8119350937060081 -0.5014912612691040 -0.2734297386072158 -0.2877498234141676
N -1.4208615575595867 -0.6505878486121410 0.3803181479545629 0.5692545008206258
O -0.7791627862482186 -0.3254503201124817 0.8752573370067706 -0.2058946535748549
O -1.1928110378155563 -0.4720477109061827 0.2770250882570922 -0.9992971180892700
N -0.6966664167814149 -0.2336666255450520 0.3760673716514572 0.6691943173322236
N -1.0575447981185451 -1.5007194946927815 1.4231607505110238 0.0628076875181509
N 0.8025816504705944 1.5955718502472169 0.0998108740223960 0.7576134719858190
O 0.7496494554672077 1.2482456020322212 0.1856322712298597 -0.9235083265987739
N 0.7457395296810931 0.8261760379379277 0.0992090447225641 0.9955526175656415
O 0.7770220972184763 1.3992765633664430 0.0565151221793234 -0.9936641819349231
O 0.4301307353754771 -0.2023888146580399 0.0029389222834856 -0.9934394819660318
N 0.5362690293501262 0.2059849771406881 0.1656870604797324 0.8475065253219278
N 0.3749848342235402 -0.4764097026067188 0.1039572956222376 0.9207393412409772
O 0.6848531494993171 -0.3423433652829968 0.3231624154196538 -0.6738758902636315
N 2.7376708294335521 -0.4023571986602814 -0.4876801021018921 0.1207489421105395
N 1.0262915835287028 -0.8138009898729753 -0.0146879692493092 0.4308753055723465
O 1.2477189197850731 -0.5713663489647791 -0.3528529369165797 -0.7095764258838037
N 1.4666138556855421 -0.4036473836568495 -0.1871031460442145 0.9977500474782615
O 1.4301367012678090 -0.5994362832712259 -0.0542174845910397 -0.9963537733476465
O 1.3476887223417613 -2.0477003540128704 -0.6558376283498679 -0.1586318904925156
N 1.3946446406633590 -2.0110319172528275 -0.4860440335278537 0.3123697133706422
