25
s                      x[A]                      y[A]                      z[A]                      q[e]
N -2.0298040749201474 1.4149546570024083 0.0031673496521529 0.1158659338886357
O -1.8511144665345849 -0.2076243804996564 0.4576949904610799 -0.2341991647481463
N -3.3437041145867505 -0.5809672504409290 0.0005396852204530 0.0569852111266852
N -2.1422939550346380 -0.4418692498835309 -0.0485648473315097 0.3189271149812888
O -1.9108159825850932 -0.2377683109610052 -0.3285928874996207 -0.2877498234141676
N -1.3628932064146595 -0.7962910962386591 0.1402113597691106 0.5692545008206258
O -0.7553320439292882 -0.6844356062573792 -0.5040745299740196 -0.2058946535748549
O -1.0701043041943050 -0.7224569173231050 0.1349091635744598 -0.9992971180892700
N -0.5572216691817518 -0.6418605534554532 -0.0016025095526715 0.6691943173322236
N -0.8146553132717139 -2.0521164326975940 -0.0306300254768635 0.0628076875181509
N 1.7238114413105738 -1.0711766833299103 0.0035393231923905 0.7576134719858190
O 1.4607155794289883 -0.8526677747630538 -0.0734484701425418 -0.9235083265987739
N 1.1997035134622522 -0.5074795110531494 -0.0110330180777708 0.9955526175656415
O 1.5908439013603031 -0.9318899266180664 0.0488750137210342 -0.9936641819349231
O 0.3453644705288565 0.1155712265767341 0.1093887568294089 -0.9934394819660318
N 0.6528273152251320 -0.1659527468583077 -0.0516130676558027 0.8475065253219278
N 0.1241245335960907 0.2718789510592612 0.0216316655820879 0.9207393412409772
O 0.4046657447583393 0.3273336525568223 -0.2495605914056763 -0.6738758902636315
N 2.0793076105100505 1.7307669942718371 -0.0253050364422157 0.1207489421105395
N 0.4381884369847929 0.9537709888322752 -0.0773636520308019 0.4308753055723465
O 0.8028697320515157 0.9620848021281843 0.2100064227675256 -0.7095764258838037
N 1.0452288801048077 0.9244190661348131 0.0032292589337754 0.9977500474782615
O 0.8757855498515043 1.0248986121524282 -0.1179877815781208 -0.9963537733476465
O 0.0239844573504381 2.2469720957645607 0.3657664510326553 -0.1586318904925156
N 0.0739439367496215 2.2138905735154069 0.2004765218279976 0.3123697133706422
