25
s                      x[A]                      y[A]                      z[A]                      q[e]
N -1.9344365837220607 1.2972732263196909 0.0035762789661020 0.1158659338886357
O -1.7772989231998435 -0.3368151536181908 0.4400621373798166 -0.2341991647481463
N -3.2848172725333487 -0.6804466574040623 0.0061491087275712 0.0569852111266852
N -2.0903044638957780 -0.5452339745811153 -0.0325428016718596 0.3189271149812888
O -1.8388344893211457 -0.3774604187762483 -0.3395365856211164 -0.2877498234141676
N -1.2784479806516551 -0.9727769722276369 -0.1148457900177098 0.5692545008206258
O -0.8263702397600705 -0.5374884984917199 0.4970924848353290 -0.2058946535748549
O -1.0758196040914501 -0.7520236716552001 -0.1671644022776324 -0.9992971180892700
N -0.6544935879686662 -0.4296836795593385 0.0182185210009845 0.6691943173322236
N -0.7587232242500809 -2.1670988954167485 -0.0208005488607231 0.0628076875181509
N 0.5330275866691888 1.6299688400383165 -0.0046251776656543 0.7576134719858190
O 0.5195573385519087 1.2758278606798286 0.0753760119527922 -0.9235083265987739
N 0.6038926574071599 0.8596984404429620 0.0099258791999758 0.9955526175656415
O 0.5485737880146312 1.4302453025164596 -0.0517163437945546 -0.9936641819349231
O 0.4826792989877715 -0.2018116671229366 -0.1161454619908974 -0.9934394819660318
N 0.4878409736864254 0.2194043903231846 0.0526824853459309 0.8475065253219278
N 0.4557509779606448 -0.4828865447654784 -0.0198700436095364 0.9207393412409772
O 0.6842656927517581 -0.2986439720436099 0.2567425481203658 -0.6738758902636315
N 2.8512166952879872 -0.0221250983977305 0.0228388800336221 0.1207489421105395
N 1.1638369599016523 -0.7068448863259638 0.0756496985607682 0.4308753055723465
O 1.4232993804358089 -0.4378295663455168 -0.2119543475969215 -0.7095764258838037
N 1.5647330915305739 -0.2314331209060828 -0.0079138685340494 0.9977500474782615
O 1.5238879981287092 -0.4264928778702506 0.1261678448575124 -0.9963537733476465
O 1.8342024473625944 -1.8835768706106555 -0.3707323166439648 -0.1586318904925156
N 1.8277488667652901 -1.8386547666434423 -0.2017167941209149 0.3123697133706422
