25
s                      x[A]                      y[A]                      z[A]                      q[e]
N       -1.9344351772959343        1.2972692239872166        0.0035764601543885        0.1158659338886357
O       -1.7772963240864179       -0.3368144918916131        0.4400592452611395       -0.2341991647481463
N       -3.2848178916499959       -0.6804441530587211        0.0061493289581347        0.0569852111266852
N       -2.0903021156020598       -0.5452290264280045       -0.0325424640697192        0.3189271149812888
O       -1.8388318756264568       -0.3774586038684292       -0.3395336089563868       -0.2877498234141676
N       -1.2784439922827771       -0.9727701504846890       -0.1148444011345464        0.5692545008206258
O       -0.8263698103785405       -0.5374884043669763        0.4970900626109429       -0.2058946535748549
O       -1.0758145348441972       -0.7520169476396888       -0.1671579335897213       -0.9992971180892700
N       -0.6544911566702672       -0.4296807995785741        0.0182173548174228        0.6691943173322236
N       -0.7587221587234863       -2.1670981440680226       -0.0208009833657031        0.0628076875181509
N        0.5330194364797485        1.6299523105587037       -0.0046272785196141        0.7576134719858190
O        0.5195476060754635        1.2758150349101782        0.0753755031864563       -0.9235083265987739
N        0.6038846119685698        0.8596933415372173        0.0099235303013303        0.9955526175656415
O        0.5485624757102222        1.4302279696576619       -0.0517110839141695       -0.9936641819349231
O        0.4826751974113198       -0.2018088476567720       -0.1161410173373046       -0.9934394819660318
N        0.4878380346479582        0.2194054119929418        0.0526797140587307        0.8475065253219278
N        0.4557496131855787       -0.4828796097397426       -0.0198692947978500        0.9207393412409772
O        0.6842618018654667       -0.2986411631140031        0.2567367645418968       -0.6738758902636315
N        2.8512146290770812       -0.0221278648734592        0.0228388666497529        0.1207489421105395
N        1.1638347419087252       -0.7068414436524766        0.0756493305098675        0.4308753055723465
O        1.4232925438075665       -0.4378300254385674       -0.2119502931743576       -0.7095764258838037
N        1.5647255549845724       -0.2314350398353262       -0.0079130385496977        0.9977500474782615
O        1.5238776496766429       -0.4264935740967021        0.1261632893484391       -0.9963537733476465
O        1.8341992814764925       -1.8835728410559722       -0.3707313628003793       -0.1586318904925156
N        1.8277443218735503       -1.8386461777897620       -0.2017113033012873        0.3123697133706422

        RMSE         3.504487779E-01 kcal/mol

Coordinates in bohr
s                   x[bohr]                   y[bohr]                   z[bohr]                      q[e]
+       -3.6555526925407729        2.4514835443210461        0.0067585301904069        0.1158659338886357
-       -3.3586032963062671       -0.6364871447603850        0.8315914525192293       -0.2341991647481463
+       -6.2074061872222988       -1.2858530929500904        0.0116205475862215        0.0569852111266852
+       -3.9500985179529815       -1.0303335355989367       -0.0614963445393211        0.3189271149812888
-       -3.4748886356959350       -0.7132933850090079       -0.6416255313158663       -0.2877498234141676
+       -2.4159090121513698       -1.8382691674364597       -0.2170244651865109        0.5692545008206258
-       -1.5616126199619595       -1.0157058798629166        0.9393640780213663       -0.2058946535748549
-       -2.0329948326423404       -1.4211060727417717       -0.3158827141820410       -0.9992971180892700
+       -1.2368090376409164       -0.8119790325712405        0.0344258113352188        0.6691943173322236
+       -1.4337770853035330       -4.0952219792765145       -0.0393081617013829        0.0628076875181509
+        1.0072607544925900        3.0801634645131339       -0.0087442891082846        0.7576134719858190
-        0.9818026846198755        2.4109410027216547        0.1424390575909762       -0.9235083265987739
+        1.1411765279989694        1.6245849673850190        0.0187527544671962        0.9955526175656415
-        1.0366328417954322        2.7027391596225896       -0.0977197862483481       -0.9936641819349231
-        0.9121239306586856       -0.3813634517655409       -0.2194747146995551       -0.9934394819660318
+        0.9218802790662477        0.4146161391099003        0.0995502319384314        0.8475065253219278
+        0.8612419507040875       -0.9125102139760720       -0.0375475254739204        0.9207393412409772
-        1.2930674036380205       -0.5643500080736443        0.4851621713203374       -0.6738758902636315
+        5.3880147738545112       -0.0418156043519764        0.0431592029838856        0.1207489421105395
+        2.1993289175003867       -1.3357367426264124        0.1429565162378905        0.4308753055723465
-        2.6896331042024890       -0.8273788375811263       -0.4005280063100296       -0.7095764258838037
+        2.9569027604258458       -0.4373488411231891       -0.0149534756791186        0.9977500474782615
-        2.8797114065952241       -0.8059560493104221        0.2384140639554407       -0.9963537733476465
-        3.4661343015021044       -3.5594368069462958       -0.7005807418104611       -0.1586318904925156
+        3.4539361957016497       -3.4745377176424919       -0.3811791196485905        0.3123697133706422
