25
s                      x[A]                      y[A]                      z[A]                      q[e]
N        1.8267686694900727        1.1030795468761658       -1.0789977588853008        0.1158659338886357
O        1.7720114066612860       -0.3799720968358333       -0.3468132563390074       -0.2341991647481463
N        3.3712353600873226       -0.3492584528619905        0.0185852731831426        0.0569852111266852
N        2.1496695835121686       -0.2828629644755027        0.0351736510268605        0.3189271149812888
O        1.9208231682594856        0.0630051706246631        0.3097673679392621       -0.2877498234141676
N        1.3821856947393625       -0.6130397718275143        0.3505532388645404        0.5692545008206258
O        0.6838202069197870       -0.5815206272233550        0.7181878303885646       -0.2058946535748549
O        1.1290277199397805       -0.5260282271585981        0.1779942964214685       -0.9992971180892700
N        0.5878494025216936       -0.5122972469372281        0.2782127302147241        0.6691943173322236
N        0.9631071720626970       -1.6481689745581574        1.2403902259033379        0.0628076875181509
N       -1.4732347566906503       -1.1339876789003129       -0.2334102316406985        0.7576134719858190
O       -1.2712914736967438       -0.9296425463842627       -0.1224920414429880       -0.9235083265987739
N       -1.0396341988700462       -0.5586059847716990       -0.1050759738770451        0.9955526175656415
O       -1.3531996838247653       -0.9997568406166898       -0.2435929438968323       -0.9936641819349231
O       -0.3202420039914853        0.1028527689144656        0.0014898019876288       -0.9934394819660318
N       -0.5959118919993346       -0.1875230017242944        0.0460305287648137        0.8475065253219278
N       -0.1540593992063395        0.2651481918343080        0.1117850540788153        0.9207393412409772
O       -0.4833811955370363        0.2956872020924687        0.2878080992621134       -0.6738758902636315
N       -2.2173433593130545        1.5726664186780082       -0.1219724484619283        0.1207489421105395
N       -0.5428157479234693        0.9073838070397521        0.2041065015712498        0.4308753055723465
O       -0.8303816951198475        0.9171447972322951       -0.1072793342873281       -0.7095764258838037
N       -1.0732391299415269        0.8300963654260952        0.0061661666671667        0.9977500474782615
O       -0.9564848381146974        0.9307020615998488        0.1589360367150311       -0.9963537733476465
O       -0.2046461233611486        2.2420103149229584        0.0236193337272208       -0.1586318904925156
N       -0.2693298246613011        2.2131607106930038        0.1710383623051999        0.3123697133706422

        RMSE         4.263372219E-01 kcal/mol

Coordinates in bohr
s                   x[bohr]                   y[bohr]                   z[bohr]                      q[e]
+        3.4520924799032269        2.0845182381900735       -2.0390102542759996        0.1158659338886357
-        3.3486162497771077       -0.7180431983356660       -0.6553820711589250       -0.2341991647481463
+        6.3707115350242427       -0.6600028229102848        0.0351210762829553        0.0569852111266852
+        4.0622867730649936       -0.5345335338938071        0.0664685672731948        0.3189271149812888
-        3.6298297234446277        0.1190625169683539        0.5853754880091313       -0.2877498234141676
+        2.6119524175830517       -1.1584772727671597        0.6624496138461804        0.5692545008206258
-        1.2922329101322994       -1.0989147217565967        1.3571783060711460       -0.2058946535748549
-        2.1335531787362871       -0.9940492835898679        0.3363604721301338       -0.9992971180892700
+        1.1108743737800193       -0.9681014915374002        0.5257458647217146        0.6691943173322236
+        1.8200087846626862       -3.1145879703915886        2.3439978156520751        0.0628076875181509
+       -2.7840102086508289       -2.1429261427652042       -0.4410814126805914        0.7576134719858190
-       -2.4023927109165202       -1.7567698072394820       -0.2314764108754774       -0.9235083265987739
+       -1.9646239065241455       -1.0556123232601773       -0.1985648129933764        0.9955526175656415
-       -2.5571767954849318       -1.8892666208185367       -0.4603239500590270       -0.9936641819349231
-       -0.6051696814116798        0.1943635644933424        0.0028153177377811       -0.9934394819660318
+       -1.1261102707821462       -0.3543671154826725        0.0869850927755065        0.8475065253219278
+       -0.2911300715525567        0.5010574652271959        0.2112431371284533        0.9207393412409772
-       -0.9134580737613766        0.5587678307576667        0.5438784842939756       -0.6738758902636315
+       -4.1901716752043034        2.9719088180060309       -0.2304945224445643        0.1207489421105395
+       -1.0257731001609107        1.7147068859804042        0.3857053883949900        0.4308753055723465
-       -1.5691939833699329        1.7331524841575905       -0.2027285607244877       -0.7095764258838037
+       -2.0281280227141321        1.5686547883932804        0.0116523662448721        0.9977500474782615
-       -1.8074943871896452        1.7587720008226952        0.3003455808571189       -0.9963537733476465
-       -0.3867251257892281        4.2367854656558475        0.0446340720102363       -0.1586318904925156
+       -0.5089596060274367        4.1822676148333837        0.3232156617036577        0.3123697133706422
