25
s                      x[A]                      y[A]                      z[A]                      q[e]
N 1.8332004417691929 1.1079322793742354 -1.0818765002617605 0.1158659338886357
O 1.7678498297021357 -0.3828723533256677 -0.3479332157772794 -0.2341991647481463
N 3.3726915454735389 -0.3486621494361930 0.0155342973727215 0.0569852111266852
N 2.1549542336216954 -0.2806878044303177 0.0340002494813929 0.3189271149812888
O 1.9187116049308721 0.0595115877440132 0.3107286444593025 -0.2877498234141676
N 1.3854705329141370 -0.6117511244655940 0.3506823300362180 0.5692545008206258
O 0.6836784598416361 -0.5856358625739690 0.7197553484165340 -0.2058946535748549
O 1.1298640869932643 -0.5326365694675893 0.1774903391671704 -0.9992971180892700
N 0.5893397695242113 -0.5135455553749825 0.2790510616060623 0.6691943173322236
N 0.9616031753295541 -1.6463829867272428 1.2370891330109770 0.0628076875181509
N -1.4809142242742697 -1.1415836011479124 -0.2352542611975618 0.7576134719858190
O -1.2777328837698476 -0.9355389180995080 -0.1218641130111647 -0.9235083265987739
N -1.0467690140733852 -0.5650029982389885 -0.1066361007171999 0.9955526175656415
O -1.3604813613534070 -1.0066404776825715 -0.2450977683805683 -0.9936641819349231
O -0.3226695535089502 0.1021482803028975 -0.0017497092968015 -0.9934394819660318
N -0.5997762761665426 -0.1904174045871430 0.0465472616153634 0.8475065253219278
N -0.1557746338638836 0.2649616642158045 0.1138353973167372 0.9207393412409772
O -0.4857495471617601 0.2957792199807768 0.2883964002426661 -0.6738758902636315
N -2.2156116938168511 1.5748082651057784 -0.1221262973435358 0.1207489421105395
N -0.5439107400353937 0.9076427187348806 0.2058848520216444 0.4308753055723465
O -0.8326506052529381 0.9192628459577912 -0.1096033161092580 -0.7095764258838037
N -1.0771957367103775 0.8330551186657932 0.0050678397515600 0.9977500474782615
O -0.9609434876778724 0.9339997524544497 0.1593241186622330 -0.9963537733476465
O -0.1997018144545962 2.2449309106259094 0.0259007985881316 -0.1586318904925156
N -0.2708659453034896 2.2159942374538240 0.1679482038806122 0.3123697133706422
