21
s                      x[A]                      y[A]                      z[A]                      q[e]
N 0.0271116389279966 -0.0476295348108282 0.3753628330930045 0.0707249461841811
O 0.1096030291087772 0.2820264638237486 0.3084270072700375 -0.3496602100029151
N 0.3679458710376731 -0.1704371595425553 0.3209873780828763 0.9824851761690530
N 0.0370060223004024 -0.0153942890645007 -0.1886257111193317 0.1071394941056757
O 0.2633374180534131 -0.3375852939607686 0.3157676081311372 -0.8194842575378962
N 0.0893407815345130 0.1228646362249747 0.2885890152308606 0.3116552922920345
N 0.0295171326125366 -0.0117459582057430 0.2468089595894742 0.0918298459672651
N 0.0757969125268137 0.0357099848140605 -0.5515431153151288 0.5593901217632046
O 0.0623743699385320 0.0632701822284010 -0.1948479429911671 -0.9963138680841535
N 0.2182675979939207 0.0830407492433967 -0.4231107006489275 0.9989733053171830
O 0.2052906718616431 0.1000114560890048 -0.3360224776509002 -0.8354521971080898
N 0.0290055765685741 0.0066131892594280 0.4291992827774858 0.2899344186932475
O 0.0406205441332525 -0.0019820776100651 0.0352232418516154 -0.8678253524624289
N -0.0049843124153518 0.0754401401484719 -0.3415124207328987 0.9219570073558310
O 0.1246760060748924 0.2434368575990984 -0.1875257041565864 -0.9704818863270434
O 0.2622812804654271 -0.4166480168289055 -0.2059021765029841 -0.3320651923316272
N 0.0847018724513232 0.0114900294223015 0.4022070721322070 0.9769593393400061
O 0.1953618047711364 -0.5151172499671871 -0.0978105406740702 -0.1970026432733326
O 0.2269790264866047 0.4891077475320522 -0.0750825443177186 -0.1946060569702309
N 0.0233298424291716 -0.0005930275072450 0.1847929829349756 0.1283355164991325
N 0.0363531023563027 0.0056364998244136 -0.1455886334723992 0.1235072004109040
