21
s                      x[A]                      y[A]                      z[A]                      q[e]
N -2.0681150406255480 1.5620281916480625 0.0489477228475304 0.0707249461841811
O -1.6946967785371592 0.0464678526724921 0.2820849490812418 -0.3496602100029151
N -1.5566236652884933 0.2651270559059472 -0.1704038193978784 0.9824851761690530
N -3.1018968388494783 -0.5611390378752513 0.0150104782687948 0.1071394941056757
O -1.6127320498786055 0.1766655352495226 -0.3375417319594494 -0.8194842575378962
N -0.6285705519766288 -0.3550393864418021 0.1226939478955151 0.3116552922920345
N -0.8202826648967996 -1.8868113395927613 -0.0119629541548822 0.0918298459672651
N -1.3898957697392234 -0.7105478461954678 0.0355216227669900 0.5593901217632046
O -1.0588280761964881 -0.5771117412316966 0.0630926814094035 -0.9963138680841535
N 1.3047263209343396 -0.4654862619358716 0.0830670137139853 0.9989733053171830
O 1.3574826258600288 -0.5359774320684536 0.1000532231664615 -0.8354521971080898
N 1.7772574710297007 -1.1996458434427264 0.0067937313755435 0.2899344186932475
O 1.5054569202637720 -0.9142070376876255 -0.0018697367607714 -0.8678253524624289
N 0.2343464195502760 0.2800794054629594 0.0752546345340353 0.9219570073558310
O 0.4349830228573483 0.2639067745288429 0.2432725013494431 -0.9704818863270434
O 0.5187993199467257 0.3745237995883288 -0.4168211661204398 -0.3320651923316272
N 0.8259652185187959 -0.1794479150392612 0.0114286922812621 0.9769593393400061
O 0.8102943945854985 1.1050580158225995 0.5151339556192687 -0.1970026432733326
O 0.8408875456751340 1.0795722230774389 -0.4890565589765843 -0.1946060569702309
N 2.0898004459091459 1.6079069384804539 0.0013629105906620 0.1283355164991325
N -0.0059748638931853 2.1900064479516681 -0.0067326910456126 0.1235072004109040
