25
s                      x[A]                      y[A]                      z[A]                      q[e]
N       -1.6983761236462833        0.2952224391530232       -1.6372918150470148        0.1158659338886357
O       -1.8496568024576487        0.4957271619044669        0.0532040001821429       -0.2341991647481463
N       -3.3764357426387352        0.0277123702151181        0.0487982148642870        0.0569852111266852
N       -2.1706411921386657       -0.0107506048228526        0.1254230783123749        0.3189271149812888
O       -1.8797460070746537       -0.2809757783028517       -0.0418749923511459       -0.2877498234141676
N       -1.4231627485496594        0.0399765632727428        0.7794018916434228        0.5692545008206258
O       -1.0269799550473657       -0.1258469905607412        0.0152942195618972       -0.2058946535748549
O       -1.1396367937994105       -0.0648342348705964        0.7454129895521679       -0.9992971180892700
N       -0.6945509048568450       -0.1543463792689721        0.4142459047158382        0.6691943173322236
N       -1.1428645254623138       -0.2402830613129402        1.9368980975810968        0.0628076875181509
N        1.1860568425159672       -1.4777386478012229       -0.1655452986079294        0.7576134719858190
O        1.0087314069478877       -1.1614015543663425       -0.1875453986863098       -0.9235083265987739
N        0.9336618374675497       -0.7507204950459956       -0.0862266564714403        0.9955526175656415
O        1.1329337534499853       -1.2916330380128389       -0.0956068030759377       -0.9936641819349231
O        0.4344083238068596        0.1636906229930282        0.2196744434242953       -0.9934394819660318
N        0.5592015099443652       -0.2109832903600264       -0.0039292351779878        0.8475065253219278
N        0.2700468924716548        0.4086065784439939        0.1749679321021282        0.9207393412409772
O        0.4621866166561518        0.3460002222362788       -0.1740902248509336       -0.6738758902636315
N        2.5501376235793773        1.0129617580515080       -0.4229504412518608        0.1207489421105395
N        0.7773159774465835        0.9132152911426277       -0.0117835606898354        0.4308753055723465
O        1.1870199668247567        0.7642685232829443        0.1681152410061847       -0.7095764258838037
N        1.3415593936627594        0.6505674594789632       -0.0915482682951838        0.9977500474782615
O        1.1932146418607374        0.8170638764408816       -0.1808080804145458       -0.9963537733476465
O        1.0060102911932720        2.2323107467642669        0.4711906494740069       -0.1586318904925156
N        0.9750868484253276        2.1991177387544605        0.3021703669995497        0.3123697133706422

        RMSE         1.167892472E+00 kcal/mol

Coordinates in bohr
s                   x[bohr]                   y[bohr]                   z[bohr]                      q[e]
+       -3.2094657317081761        0.5578895560888519       -3.0940331178926104        0.1158659338886357
-       -3.4953447827350081        0.9367885689499338        0.1005409891230585       -0.2341991647481463
+       -6.3805388337940219        0.0523687899938680        0.0922152615047477        0.0569852111266852
+       -4.1019173697793621       -0.0203156987982175        0.2370152678222380        0.3189271149812888
-       -3.5522051387940086       -0.5309672688797457       -0.0791322670493071       -0.2877498234141676
+       -2.6893878267126614        0.0755447560225200        1.4728561168698273        0.5692545008206258
-       -1.9407108513745130       -0.2378163458728773        0.0289018862746053       -0.2058946535748549
-       -2.1536014227757421       -0.1225189474590350        1.4086264006123548       -0.9992971180892700
+       -1.3125109903683543       -0.2916723852743991        0.7828113085054337        0.6691943173322236
+       -2.1597009516250978       -0.4540691784680482        3.6602069373485642        0.0628076875181509
+        2.2413226015804444       -2.7925213293486952       -0.3128352757261216        0.7576134719858190
-        1.9062260932792554       -2.1947308594334074       -0.3544094396069238       -0.9235083265987739
+        1.7643651666053892       -1.4186561324050520       -0.1629447654449580        0.9955526175656415
-        2.1409345123074348       -2.4408326964373259       -0.1806706735441013       -0.9936641819349231
-        0.8209127586141665        0.3093304467623932        0.4151245348342984       -0.9934394819660318
+        1.0567377027373326       -0.3987006358283966       -0.0074251783689115        0.8475065253219278
+        0.5103146678023870        0.7721545263195487        0.3306414724107231        0.9207393412409772
-        0.8734061243320922        0.6538456593741107       -0.3289828460876368       -0.6738758902636315
+        4.8190616907908899        1.9142202982796261       -0.7992604986075577        0.1207489421105395
+        1.4689143103165969        1.7257267938398002       -0.0222677024864998        0.4308753055723465
-        2.2431426427488272        1.4442581953128542        0.3176917630170264       -0.7095764258838037
+        2.5351798350578796        1.2293943245501238       -0.1730011543378314        0.9977500474782615
-        2.2548488820030412        1.5440269534781810       -0.3416777532532471       -0.9963537733476465
-        1.9010839297473634        4.2184559383007088        0.8904212803824727       -0.1586318904925156
+        1.8426470920596789        4.1557302438820471        0.5710192368582290        0.3123697133706422
