21
s                      x[A]                      y[A]                      z[A]                      q[e]
N        2.0219948940556463        1.4925758364439987       -0.5717786012797222        0.0707249461841811
O        1.6802700442241820       -0.0214098421592512       -0.3560218142155543       -0.3496602100029151
N        1.5564626426685284        0.3059396018011374        0.0660773817873638        0.9824851761690530
N        3.1148467113431901       -0.5135016725068776        0.0508202354540820        0.1071394941056757
O        1.6241388948571958        0.2654314278606106        0.2110350067825850       -0.8194842575378962
N        0.6458029359605126       -0.3370028016115498       -0.0144186062988086        0.3116552922920345
N        0.8492996745046049       -1.8244540650501015        0.4944527592985923        0.0918298459672651
N        1.4021010972597907       -0.6851400951071031        0.1261988205280690        0.5593901217632046
O        1.0694556261388855       -0.5543622004680776        0.0979881132730460       -0.9963138680841535
N       -1.2866010261886860       -0.4767438505192131       -0.1511339761767296        0.9989733053171830
O       -1.3377075978633841       -0.5477637784103656       -0.1714986123507595       -0.8354521971080898
N       -1.7524977880851904       -1.2196716959476919       -0.1453357300570035        0.2899344186932475
O       -1.4876530947033006       -0.9313997594376707       -0.0982827013467117       -0.8678253524624289
N       -0.2312995649434831        0.2846174504218640       -0.0211212943904561        0.9219570073558310
O       -0.4180333982481904        0.2714241882365279       -0.1938630843762314       -0.9704818863270434
O       -0.5599244958851062        0.3545893507930389        0.4576234694210670       -0.3320651923316272
N       -0.8187718759448613       -0.1847197219893628       -0.0269855553843130        0.9769593393400061
O       -0.7704160048095673        1.1357078272133838       -0.4599550318036389       -0.1970026432733326
O       -0.9115154184117863        1.0422477161586230        0.5306797545240406       -0.1946060569702309
N       -2.1096936508241719        1.5937622347901663       -0.0658930618849840        0.1283355164991325
N       -0.0336279015861419        2.1921740489452706        0.2191416943692377        0.1235072004109040

        RMSE         5.923269215E-01 kcal/mol

Coordinates in bohr
s                   x[bohr]                   y[bohr]                   z[bohr]                      q[e]
+        3.8210165768392881        2.8205595523552947       -1.0805049608160260        0.0707249461841811
-        3.1752502003946170       -0.0404587380702655       -0.6727837235560261       -0.3496602100029151
+        2.9412881191498501        0.5781420583357743        0.1248681546654326        0.9824851761690530
+        5.8862072072216245       -0.9703775260025364        0.0960363266394969        0.1071394941056757
-        3.0691777009838477        0.5015927037457707        0.3987983657032209       -0.8194842575378962
+        1.2203906799819495       -0.6368429985578272       -0.0272472170155494        0.3116552922920345
+        1.6049437832541815       -3.4477185114229130        0.9343802970512609        0.0918298459672651
+        2.6495870740249137       -1.2947271373225537        0.2384812081538557        0.5593901217632046
-        2.0209782367325118       -1.0475927331908161        0.1851706976363961       -0.9963138680841535
+       -2.4313235722296112       -0.9009153094775185       -0.2856018232254868        0.9989733053171830
-       -2.5279009959058714       -1.0351235226415605       -0.3240854082389947       -0.8354521971080898
+       -3.3117408549516409       -2.3048454683138102       -0.2746447260512060        0.2899344186932475
-       -2.8112569186790157       -1.7600904586545028       -0.1857273884154504       -0.8678253524624289
+       -0.4370928306807296        0.5378490318233946       -0.0399134618131308        0.9219570073558310
-       -0.7899686339835221        0.5129173795917501       -0.3663481353075999       -0.9704818863270434
-       -1.0581039481578893        0.6700767600027361        0.8647830257876418       -0.3320651923316272
+       -1.5472546047631204       -0.3490696845306058       -0.0509953090197254        0.9769593393400061
-       -1.4558752517594831        2.1461767519720762       -0.8691890401351228       -0.1970026432733326
-       -1.7225144999303761        1.9695627384237049        1.0028393963756266       -0.1946060569702309
+       -3.9867432086749428        3.0117741328510306       -0.1245198405304636        0.1283355164991325
+       -0.0635475241716571        4.1426085718425458        0.4141177850266430        0.1235072004109040
