21
s                      x[A]                      y[A]                      z[A]                      q[e]
N -2.0207569860011634 1.3679262271294519 -0.2275366608314975 0.0707249461841811
O -1.6328386872122207 -0.0899195839044798 0.2616243257027537 -0.3496602100029151
N -1.4934852335010502 0.0768331022208589 -0.2397510720408726 0.9824851761690530
N -3.0190859057875925 -0.7649332322376551 0.0478490147366943 0.1071394941056757
O -1.5376615457831417 -0.0534985051604310 -0.3691164060010272 -0.8194842575378962
N -0.4478703430531945 -0.6923180869282231 -0.0761060196127439 0.3116552922920345
N -0.6748426394894727 -2.0057800734957647 0.2711196887842134 0.0918298459672651
N -1.1877808908331664 -1.0843349858212978 0.0380453314392762 0.5593901217632046
O -0.9003802924316254 -0.8783886775797478 0.0086258794938741 -0.9963138680841535
N 0.6805231324066736 0.8954728059903863 -0.0744046786207334 0.9989733053171830
O 0.6474351497582168 0.9907992021814034 -0.0885628001252155 -0.8354521971080898
N 0.4321773868947671 1.7346126504762858 0.0146915808728724 0.2899344186932475
O 0.4598621896290516 1.3478356924337975 0.0215994086368210 -0.8678253524624289
N 0.5485028555740300 -0.4003283142199999 -0.0670616275392412 0.9219570073558310
O 0.6488946412015768 -0.2190777294260240 -0.2333700902581376 -0.9704818863270434
O 0.8129970351278231 -0.2327753326717670 0.4200153853902635 -0.3320651923316272
N 0.5884943760999680 0.3507544175338548 -0.0012862393532082 0.9769593393400061
O 1.5266588943581028 -0.4919769185146139 -0.5435808461345615 -0.1970026432733326
O 1.5640125824628899 -0.4612450523451365 0.4595125498127737 -0.1946060569702309
N 2.7719800142465378 0.1206624997825828 -0.0717281816350379 0.1283355164991325
N 1.8109771872254266 -1.8351463369932737 -0.0441975589105585 0.1235072004109040
