21
s                      x[A]                      y[A]                      z[A]                      q[e]
N 0.0147409331249723 0.9527201895379920 0.0169210563464975 0.0707249461841811
O 0.1111496179352975 0.1297102420647642 0.2597002590682188 -0.3496602100029151
N 0.2114186189118029 -0.3636983188072973 0.4720613957085216 0.9824851761690530
N 0.1878009399851018 -0.0008550530871434 -0.2332402112943746 0.1071394941056757
O 0.0528451842868782 -0.4426482080577185 0.5375949359658498 -0.8194842575378962
N 0.2234778478476783 -0.1286844400412733 0.3345623065490676 0.3116552922920345
N 0.0146707026247044 1.0078999532660409 0.0182099620697911 0.0918298459672651
N 0.3160991572133032 -0.3216265701094850 -0.4829766993564251 0.5593901217632046
O 0.2311024107776782 -0.2618672051664661 -0.1437380497458297 -0.9963138680841535
N 0.1325891423416086 -0.0157204693368848 -0.4026053876135086 0.9989733053171830
O 0.0954332131681386 -0.0059556981220197 -0.3082312651994462 -0.8354521971080898
N -0.1281015106072206 -0.1374030027668685 0.4286606202904656 0.2899344186932475
O -0.0888234282179562 -0.1386237878387456 0.0428286314830525 -0.8678253524624289
N 0.0391371758788445 -0.0290505089009991 -0.3379330064024335 0.9219570073558310
O 0.1152287574489955 0.1461619311483585 -0.1532726101403452 -0.9704818863270434
O 0.3512370166460707 -0.4848728324848843 -0.1644542241738126 -0.3320651923316272
N 0.0647958796648505 -0.0949753401738534 0.4137627704152234 0.9769593393400061
O 0.3530868504185308 -0.6796807262587605 -0.1010395907342696 -0.1970026432733326
O 0.2344352186439143 0.2943673593980900 0.1127084471792778 -0.1946060569702309
N 0.2538714381470543 -0.4559179243333401 0.2627551499322035 0.1283355164991325
N -0.1302061508822266 -0.2950500705897896 -0.0134081447498191 0.1235072004109040
