25
s                      x[A]                      y[A]                      z[A]                      q[e]
N        2.4210368100503774        0.1264900529174453       -0.2175366043124434        0.1158659338886357
O        1.2129957093181303        1.0993465715704218        0.4514397378970843       -0.2341991647481463
N        1.9452075806566433        2.4612079986701252        0.0172073826587572        0.0569852111266852
N        1.2075648693284715        1.5110606653217262        0.0095932568230394        0.3189271149812888
O        1.1028245622257764        1.2424047797748272       -0.3105376238375159       -0.2877498234141676
N        0.3316418788872884        1.2274994147360738        0.0415554352065830        0.5692545008206258
O        0.4142861646698849        0.5671504033659980        0.5791559771656739       -0.2058946535748549
O        0.3385557423788879        0.9344908762603448       -0.0398430338317809       -0.9992971180892700
N        0.3078200923337264        0.3923579314707583        0.1010385199811996        0.6691943173322236
N       -0.8547381052609861        1.6604103913386985        0.3693518376319798        0.0628076875181509
N        0.9598334387975502       -1.8873959350972889       -0.1260813341631290        0.7576134719858190
O        0.7274793642336586       -1.6377823052382192       -0.0007733495498857       -0.9235083265987739
N        0.3638766762200503       -1.4090230327457862       -0.0054787494755101        0.9955526175656415
O        0.8003384716996162       -1.7587855824706218       -0.1453033634933037       -0.9936641819349231
O       -0.3088425826510648       -0.6139758270003282       -0.0005508239711203       -0.9934394819660318
N        0.0225467114294943       -0.9036516947711313        0.1100001287074363        0.8475065253219278
N       -0.4861117500980436       -0.4134227099483667        0.1311733841798979        0.9207393412409772
O       -0.4625534462803941       -0.7200862322451638        0.3920973516426971       -0.6738758902636315
N       -2.8942768412401270        0.1054097021899665       -0.2318667348580001        0.1207489421105395
N       -1.1050973155281738       -0.8023287859342059        0.2932467874206409        0.4308753055723465
O       -1.4997786733383187       -0.1999269064200519        0.2438701655958516       -0.7095764258838037
N       -1.6197899948779082       -0.0878351749301829       -0.0341014711842364        0.9977500474782615
O       -1.5763181447622487       -0.3197238412070854       -0.0791834077862164       -0.9963537733476465
O       -1.9690730161570795       -1.4695153302147195        0.9147019584467844       -0.1586318904925156
N       -1.9494409973497020       -1.4934286442411120        0.7424561218325765        0.3123697133706422

        RMSE         4.112872100E+00 kcal/mol

Coordinates in bohr
s                   x[bohr]                   y[bohr]                   z[bohr]                      q[e]
+        4.5750965106472794        0.2390315576086396       -0.4110846044126064        0.1158659338886357
-        2.2922296819667203        2.0774639372291204        0.8530974667739546       -0.2341991647481463
+        3.6759095846054746        4.6510090552727110        0.0325172405610035        0.0569852111266852
+        2.2819668817550811        2.8554908164101538        0.0181286280467241        0.3189271149812888
-        2.0840363870346419        2.3478047707341707       -0.5868310607033493       -0.2877498234141676
+        0.6267123228292298        2.3196377130109527        0.0785283915646499        0.5692545008206258
-        0.7828873887924055        1.0717589343046718        1.0944461807650314       -0.2058946535748549
-        0.6397776312971545        1.7659318228711520       -0.0752924219494165       -0.9992971180892700
+        0.5816956704238837        0.7414490336308842        0.1909351308860657        0.6691943173322236
+       -1.6152209279360086        3.1377208954943949        0.6979738170590101        0.0628076875181509
+        1.8138223253837580       -3.5666614076362544       -0.2382591911006435        0.7576134719858190
-        1.3747367603237957       -3.0949600100212100       -0.0014614188485301       -0.9235083265987739
+        0.6876272614977883       -2.6626676363515331       -0.0103533360187098        0.9955526175656415
-        1.5124205191797555       -3.3236230642732978       -0.2745835621101912       -0.9936641819349231
-       -0.5836278970895857       -1.1602461606820960       -0.0010409064487545       -0.9934394819660318
+        0.0426071096314740       -1.7076542159232500        0.2078701170221660        0.8475065253219278
+       -0.9186180740522999       -0.7812556958470025        0.2478817710494697        0.9207393412409772
-       -0.8740993318566147       -1.3607657656561791        0.7409566091220295       -0.6738758902636315
+       -5.4693905611990266        0.1991954681051089       -0.4381646264857661        0.1207489421105395
+       -2.0883312683269031       -1.5161816679867302        0.5541561153953631        0.4308753055723465
-       -2.8341709414119030       -0.3778070982439344        0.4608478231462076       -0.7095764258838037
+       -3.0609594710759849       -0.1659844247997251       -0.0644424410133988        0.9977500474782615
-       -2.9788095801904362       -0.6041904956607594       -0.1496349543963939       -0.9963537733476465
-       -3.7210087215660774       -2.7769815112675427        1.7285361878843291       -0.1586318904925156
+       -3.6839095827302968       -2.8221711255294939        1.4030387304331200        0.3123697133706422
