21
s                      x[A]                      y[A]                      z[A]                      q[e]
N        1.8199637567686733        1.0837317963786457       -1.3631547574240075        0.0707249461841811
O        1.6291933881750760       -0.1165872832867843       -0.3666117570752059       -0.3496602100029151
N        1.5191814926904375        0.3853624441319494       -0.1781393667938823        0.9824851761690530
N        3.1317702464828305       -0.2634847399917578        0.0799880729100799        0.1071394941056757
O        1.5967639504322020        0.4125292073890858       -0.0078408872392651       -0.8194842575378962
N        0.6802191725492396       -0.1578750120316915        0.2025859701892778        0.3116552922920345
N        0.9967315452669929       -1.2717422224269224        1.3205387435756797        0.0918298459672651
N        1.4484959792033600       -0.3892589482524226        0.4690448185319118        0.5593901217632046
O        1.1119272693520228       -0.3396909864088524        0.3687550498430973       -0.9963138680841535
N       -1.1741332786270269       -0.5754897740706851       -0.2432489814190664        0.9989733053171830
O       -1.2052044269512090       -0.6678686535126198       -0.2729555231118928       -0.8354521971080898
N       -1.5261527514485340       -1.3798479167571938       -0.3013735395929115        0.2899344186932475
O       -1.3092934166540444       -1.0698028117356633       -0.2185025597674253       -0.8678253524624289
N       -0.2655711512328000        0.3268262192429725        0.0460997488365382        0.9219570073558310
O       -0.4182891916982998        0.2692355025783482       -0.1642735548962466       -0.9704818863270434
O       -0.6739846487486523        0.3281343299565355        0.4576357417433627       -0.3320651923316272
N       -0.7765149019392780       -0.2218792613636657       -0.0482098750703710        0.9769593393400061
O       -0.8571058166063357        1.0964869653924334       -0.4195861308293412       -0.1970026432733326
O       -1.1101065564385877        0.9387610169261809        0.5399814125053513       -0.1946060569702309
N       -2.2811712375117756        1.3636175949666645       -0.1891621238811472        0.1283355164991325
N       -0.3501158900791020        2.2035316814664250        0.3867532211352331        0.1235072004109040

        RMSE         1.537432241E+00 kcal/mol

Coordinates in bohr
s                   x[bohr]                   y[bohr]                   z[bohr]                      q[e]
+        3.4392330585521380        2.0479562886060703       -2.5759891581462755        0.0707249461841811
-        3.0787293090575978       -0.2203180351231891       -0.6927958152450153       -0.3496602100029151
+        2.8708369560491405        0.7282294784464275       -0.3366346154029141        0.9824851761690530
+        5.9181880537101073       -0.4979139968218877        0.1511555511032035        0.1071394941056757
-        3.0174465533209807        0.7795672207175659       -0.0148171294628082       -0.8194842575378962
+        1.2854279414036043       -0.2983405347932563        0.3828320005178990        0.3116552922920345
+        1.8835496411589885       -2.4032445025679556        2.4954565634142178        0.0918298459672651
+        2.7372606945212086       -0.7355928040808397        0.8863662475903799        0.5593901217632046
-        2.1012380105035011       -0.6419229315993484        0.6968460515830046       -0.9963138680841535
+       -2.2187903313909483       -1.0875180609951967       -0.4596739551786156        0.9989733053171830
-       -2.2775062921271303       -1.2620888429171397       -0.5158111831125518       -0.8354521971080898
+       -2.8840107258516419       -2.6075346574546274       -0.5695134512904241        0.2899344186932475
-       -2.4742059753410892       -2.0216343224251254       -0.4129099956719142       -0.8678253524624289
+       -0.5018567426525341        0.6176120449880531        0.0871158997534504        0.9219570073558310
-       -0.7904520135489148        0.5087813631230731       -0.3104320284092679       -0.9704818863270434
-       -1.2736463988978459        0.6200840159784644        0.8648062171157040       -0.3320651923316272
+       -1.4674004970019772       -0.4192910368962048       -0.0911034604255381        0.9769593393400061
-       -1.6196952539228586        2.0720600647260548       -0.7929028733079724       -0.1970026432733326
-       -2.0977973617440240        1.7740012192467625        1.0204169824729827       -0.1946060569702309
+       -4.3107888841689670        2.5768637943424770       -0.3574646074452940        0.1283355164991325
+       -0.6616231444204003        4.1640713867411208        0.7308576660842186        0.1235072004109040
