25
s                      x[A]                      y[A]                      z[A]                      q[e]
N -1.9576057070478274 1.3354962538505304 -0.4710814960218465 0.1158659338886357
O -1.8548524077321591 -0.1092677538009178 0.4430498779567814 -0.2341991647481463
N -3.3575464826491999 -0.5270532555319605 0.0368587588200075 0.0569852111266852
N -2.1323776100981924 -0.4039809027242504 -0.0304854846537958 0.3189271149812888
O -1.8723073833508370 -0.3033428221446917 -0.3210466215370079 -0.2877498234141676
N -1.3047943937514701 -0.7951720168199403 0.3015651131979810 0.5692545008206258
O -0.8257506250465572 -0.6422871706529771 -0.3502772823563451 -0.2058946535748549
O -1.0238245355512792 -0.6741399530778557 0.2283284597796333 -0.9992971180892700
N -0.5425473278214263 -0.6044250660580013 0.0873574166312969 0.6691943173322236
N -0.8283379954826215 -2.0423989675579164 0.4732146414710063 0.0628076875181509
N 1.5825610395619349 -1.0220807633038835 -0.1152397101992158 0.7576134719858190
O 1.3484111772046516 -0.8326664661517393 -0.1456283863602015 -0.9235083265987739
N 1.0913234373899505 -0.4893466945288769 -0.0628681589824477 0.9955526175656415
O 1.4616189196710760 -0.9012539296895067 -0.0705636403349534 -0.9936641819349231
O 0.3383642682703141 0.0830370630132693 0.1343869231012596 -0.9934394819660318
N 0.6007620996966058 -0.1646758663236249 -0.0462099795715009 0.8475065253219278
N 0.1303945178694206 0.2429857772929858 0.0732125912949390 0.9207393412409772
O 0.3764639176014329 0.3122161751722185 -0.1563268808541920 -0.6738758902636315
N 2.0884598823774243 1.7103952125397099 -0.0649303042392022 0.1207489421105395
N 0.4295779981342819 0.9278742449381949 0.0054839980624040 0.4308753055723465
O 0.8042477171032282 0.9154020649575719 0.2140589279358619 -0.7095764258838037
N 0.9980929191081073 0.8738766205290820 0.0197736771293479 0.9977500474782615
O 0.8296527843717280 0.9842842199174615 -0.0666425584871809 -0.9963537733476465
O 0.1275317204197456 2.1672513685107861 0.5401030213314965 -0.1586318904925156
N 0.1159047451988835 2.1649060126527542 0.3871687211349255 0.3123697133706422
