30
s                      x[A]                      y[A]                      z[A]                      q[e]
N -1.9748566583192753 1.6950955878051970 -0.3135099085589286 0.2137068255539760
N -1.6230376276468643 0.9974572364191837 -0.0038327030972178 0.4524136045707061
O -1.5168600037354456 1.2473832915498440 0.4775464710733726 -0.5303393512711568
N -1.2633524133699772 1.6737101300487973 0.9091645864650629 0.2065219334641430
N -3.3205130334432438 1.2839048946159761 0.2891012068320091 0.0640972179527254
N -1.6548344304677052 1.8026566016302743 -1.0232409533865228 0.2729192555687945
O -1.8326169323092176 1.5777474123078494 -0.6043830178503611 -0.5760168259183410
O -2.5355389821877670 -1.0328613956631905 0.2663319752371434 -0.7855321009151053
O -2.1547349961381967 -1.3965054272185604 0.1088957766960267 -0.7445427033607991
N -2.3530052417974829 -1.2338781725829098 0.1630628861868356 0.9977538426035523
N -1.7890838636510680 0.0515942833720215 -0.1138716646379304 0.2084365764815679
N -1.3206528967379207 -0.5787546027798507 -0.2112008463148355 0.3300899125146088
N 0.1239371699745093 -0.4267275083232848 -0.4904682600049912 0.6266498413516267
O -0.0760485430684491 -0.0313290651857708 -0.6442400254163849 -0.5811225412727979
N -0.0723309642561818 -0.1834517680182362 -1.8982212642016922 0.5003074335780895
O -0.0892687991943096 -0.3045515967925658 -1.6462348605537502 -0.5967490130385100
N -0.0426263609892376 -1.4636836568420162 -0.7670003213518061 0.9708061175491041
O 0.0172866694842265 -1.6114730297871218 -0.3819315676019856 -0.1568654630532827
O -0.0592965118718769 -1.4646715033335256 -0.8166337591698777 -0.7813807259506527
N 0.6576251528813662 -0.1594858959694140 0.3756231980922215 0.1400529194232831
N 0.7589104182167432 0.3775525294770322 -0.0323241755266627 0.1778327620465852
N 1.1073756963294099 0.8607384364495277 -0.0772972841152100 0.7120624373414439
O 1.1319576489794960 1.0189316816807188 -0.0790331155137016 -0.9970019554920370
N 1.7873646469410984 -0.3417269855710731 -0.3477763156902805 0.9931708722557875
N 2.4471366249098252 -0.6722148323568721 -0.5955745412597850 0.8506195801821621
O 2.1730723027458292 -0.6287943339094328 -0.5456582030662938 -0.8089940633040810
O 2.3298325757817135 -0.5715134733888926 -0.4779998968517909 -0.9883399134133223
N 0.9934139710479403 -0.3385539542505337 1.7980418843063632 0.2529889584625400
N 1.0902960838122937 -0.1383958571484086 0.9792778201263326 0.5419198115726583
O 1.0040969298353737 -0.3080743374272358 1.3860476096663883 -0.9654652454832693
