25
s                      x[A]                      y[A]                      z[A]                      q[e]
N        1.8484003435629479        1.1691236052823684       -0.9139641794292472        0.1158659338886357
O        1.7176915182491705       -0.3979826556484881       -0.4463618115306353       -0.2341991647481463
N        3.3596276103040648       -0.4737851188514971        0.0167449589798450        0.0569852111266852
N        2.1085855520188090       -0.3076792839994755       -0.0220281219542294        0.3189271149812888
O        1.8981381676478941       -0.0562402239642664        0.2932507975138929       -0.2877498234141676
N        1.2544613556649697       -0.7229557991678831        0.1872194111247028        0.5692545008206258
O        0.6666925710925629       -0.6936152445204701        0.5307485636699411       -0.2058946535748549
O        1.0294401184834034       -0.5553345885919052        0.0165438193883912       -0.9992971180892700
N        0.5368637386993326       -0.5205371011751688        0.0889621054376026        0.6691943173322236
N        0.8911768774324371       -1.7615893805765230        1.1016112922105001        0.0628076875181509
N       -1.2690355768677237       -1.0075118363758528       -0.1916749901371854        0.7576134719858190
O       -1.1410042090562194       -0.8719312256615086       -0.1390428620239502       -0.9235083265987739
N       -0.8973275178596523       -0.5455378804500632       -0.0933297800513958        0.9955526175656415
O       -1.2159383652535556       -0.9096475073495651       -0.1994615333456258       -0.9936641819349231
O       -0.3071944401771650        0.0296047774283278       -0.0278876309943021       -0.9934394819660318
N       -0.5423898282619662       -0.2146587266607893       -0.0331386977272483        0.8475065253219278
N       -0.1587804331225368        0.1578427050988617        0.0738845997485557        0.9207393412409772
O       -0.4379635095099020        0.2073787454233151        0.1806404863880348       -0.6738758902636315
N       -2.1806274345946819        1.6117105530627205       -0.0988224900968749        0.1207489421105395
N       -0.4818090749702346        0.8346035838151317        0.1960787974987871        0.4308753055723465
O       -0.7574886705938656        0.8573140030705596       -0.0408566230745629       -0.7095764258838037
N       -0.9812321178727588        0.7529122639745612        0.0316582924843149        0.9977500474782615
O       -0.8331399414911447        0.8685173897832360        0.1601443396049811       -0.9963537733476465
O       -0.2457940428082674        2.1372640407301500        0.1286098394444562       -0.1586318904925156
N       -0.1994914788688661        2.1655040842050162        0.2256454352513756        0.3123697133706422

        RMSE         4.620868873E-01 kcal/mol

Coordinates in bohr
s                   x[bohr]                   y[bohr]                   z[bohr]                      q[e]
+        3.4929704195361282        2.2093234207915371       -1.7271419876000746        0.1158659338886357
-        3.2459665375127793       -0.7520782218580344       -0.8435015766561247       -0.2341991647481463
+        6.3487760670010429       -0.8953241169468162        0.0316433864539327        0.0569852111266852
+        3.9846492054128602       -0.5814295812359676       -0.0416271175516785        0.3189271149812888
-        3.5869612851328765       -0.1062786205268736        0.5541636933733469       -0.2877498234141676
+        2.3705883971773378       -1.3661884612387916        0.3537934123951808        0.5692545008206258
-        1.2598663692422665       -1.3107428485861521        1.0029694268163052       -0.2058946535748549
-        1.9453598864924897       -1.0494302804324980        0.0312632877130985       -0.9992971180892700
+        1.0145254328310935       -0.9836725593608013        0.1681140148211714        0.6691943173322236
+        1.6840802276880051       -3.3289214748045284        2.0817436389895398        0.0628076875181509
+       -2.3981296837423836       -1.9039214389074417       -0.3622132364591109        0.7576134719858190
-       -2.1561854631108832       -1.6477112167350179       -0.2627529289250867       -0.9235083265987739
+       -1.6957032535916108       -1.0309171851133738       -0.1763677236463555        0.9955526175656415
-       -2.2977904957661273       -1.7189846595960649       -0.3769276705871069       -0.9936641819349231
-       -0.5805133591981806        0.0559449213446752       -0.0526999848670601       -0.9934394819660318
+       -1.0249682286492223       -0.4056462038284043       -0.0626230628588310        0.8475065253219278
+       -0.3000515326831673        0.2982794835382545        0.1396216584138405        0.9207393412409772
-       -0.8276310859180598        0.3918890330911065        0.3413610464428786       -0.6738758902636315
+       -4.1207886330436514        3.0456915387987080       -0.1867474413188620        0.1207489421105395
+       -0.9104871964539216        1.5771721967361865        0.3705352262818130        0.4308753055723465
-       -1.4314461305595467        1.6200886693232692       -0.0772078280219847       -0.7095764258838037
+       -1.8542599682824674        1.4227979754103290        0.0598255023949951        0.9977500474782615
-       -1.5744063135982225        1.6412600018878210        0.3026289423957236       -0.9963537733476465
-       -0.4644834241766827        4.0388436947693283        0.2430373735891256       -0.1586318904925156
+       -0.3769842594247146        4.0922096427078474        0.4264080740848272        0.3123697133706422
