21
s                      x[A]                      y[A]                      z[A]                      q[e]
N -1.7591684449695810 1.0538011638249929 -1.2952486501383504 0.0707249461841811
O -1.6654867756776930 0.1420433271830205 0.0137911488547717 -0.3496602100029151
N -1.4249569850323371 -0.0065093213835381 -0.4548830645581083 0.9824851761690530
N -3.0903425872178376 -0.4582891697330216 -0.0425357933071142 0.1071394941056757
O -1.4648043047359769 -0.1863349249689424 -0.4977034606482548 -0.8194842575378962
N -0.5980054364440661 -0.4897683612012268 0.1985260266881435 0.3116552922920345
N -1.0097221036765611 -1.4587022170113175 1.2728370316298874 0.0918298459672651
N -1.3774649682542404 -0.7154214189336821 0.4358267457135792 0.5593901217632046
O -1.0610532201263008 -0.5756712104842353 0.3574239276460431 -0.9963138680841535
N 0.8422413791072837 0.8437618090087381 -0.0095188587265959 0.9989733053171830
O 0.8264348613162635 0.9439123374049574 -0.0196073621715419 -0.8354521971080898
N 0.7787253730736806 1.7137670603008548 0.1060007279944749 0.2899344186932475
O 0.7319795970815955 1.3293537331861847 0.1140483298785727 -0.8678253524624289
N 0.4609051728325230 -0.4135243149000075 0.0381892958281326 0.9219570073558310
O 0.5671383438252355 -0.2523274826722932 -0.1451860354288189 -0.9704818863270434
O 0.8270697244484991 -0.3082759811875818 0.4752378960492123 -0.3320651923316272
N 0.6566864875496901 0.3147882155134237 0.0857924558664289 0.9769593393400061
O 1.2528555534546193 -0.6620395642628973 -0.6795418381982806 -0.1970026432733326
O 1.5203721781970552 -0.6898707057319954 0.2886094942118792 -0.1946060569702309
N 2.6709677927097752 -0.3223671010720068 -0.5045861355064205 0.1283355164991325
N 1.3710064257827714 -2.0611959103280530 -0.2661575782430123 0.1235072004109040
