21
s                      x[A]                      y[A]                      z[A]                      q[e]
N       -1.7591684449695810        1.0538011638249929       -1.2952486501383504        0.0707249461841811
O       -1.6654867756776930        0.1420433271830205        0.0137911488547717       -0.3496602100029151
N       -1.4249569850323369       -0.0065093213835381       -0.4548830645581083        0.9824851761690530
N       -3.0903425872178376       -0.4582891697330216       -0.0425357933071142        0.1071394941056757
O       -1.4648043047359769       -0.1863349249689424       -0.4977034606482548       -0.8194842575378962
N       -0.5980054364440660       -0.4897683612012267        0.1985260266881435        0.3116552922920345
N       -1.0097221036765611       -1.4587022170113175        1.2728370316298874        0.0918298459672651
N       -1.3774649682542404       -0.7154214189336821        0.4358267457135792        0.5593901217632046
O       -1.0610532201263008       -0.5756712104842353        0.3574239276460431       -0.9963138680841535
N        0.8422413791072837        0.8437618090087381       -0.0095188587265959        0.9989733053171830
O        0.8264348613162635        0.9439123374049573       -0.0196073621715419       -0.8354521971080898
N        0.7787253730736806        1.7137670603008548        0.1060007279944749        0.2899344186932475
O        0.7319795970815955        1.3293537331861844        0.1140483298785727       -0.8678253524624289
N        0.4609051728325230       -0.4135243149000075        0.0381892958281326        0.9219570073558310
O        0.5671383438252355       -0.2523274826722932       -0.1451860354288189       -0.9704818863270434
O        0.8270697244484991       -0.3082759811875818        0.4752378960492123       -0.3320651923316272
N        0.6566864875496901        0.3147882155134237        0.0857924558664289        0.9769593393400061
O        1.2528555534546193       -0.6620395642628973       -0.6795418381982806       -0.1970026432733326
O        1.5203721781970549       -0.6898707057319954        0.2886094942118792       -0.1946060569702309
N        2.6709677927097752       -0.3223671010720068       -0.5045861355064205        0.1283355164991325
N        1.3710064257827714       -2.0611959103280530       -0.2661575782430123        0.1235072004109040

        RMSE         7.177624362E-01 kcal/mol

Coordinates in bohr
s                   x[bohr]                   y[bohr]                   z[bohr]                      q[e]
+       -3.3243465695400389        1.9913955903179539       -2.4476652131304268        0.0707249461841811
-       -3.1473138716026576        0.2684229863247080        0.0260614942909399       -0.3496602100029151
+       -2.6927784422692267       -0.0123008346774732       -0.8596044111237771        0.9824851761690530
+       -5.8399011236804848       -0.8660410170588678       -0.0803809998795279        0.1071394941056757
-       -2.7680789633426652       -0.3521219757990346       -0.9405232323177792       -0.8194842575378962
+       -1.1300664964141625       -0.9255280675846244        0.3751598192159228        0.3116552922920345
+       -1.9080982387698353       -2.7565476887495413        2.4053133921211902        0.0918298459672651
+       -2.6030315374129760       -1.3519505460710888        0.8235931875482162        0.5593901217632046
-       -2.0050999905738265       -1.0878609261259919        0.6754333339364761       -0.9963138680841535
+        1.5916055380406651        1.5944787341473707       -0.0179880360201905        0.9989733053171830
-        1.5617355484184603        1.7837358041361122       -0.0370525445468763       -0.8354521971080898
+        1.4715776820542281        3.2385503867995866        0.2003123450087082        0.2899344186932475
-        1.3832409679071858        2.5121144795768280        0.2155201085363715       -0.8678253524624289
+        0.8709845464602743       -0.7814477013785940        0.0721673100392598        0.9219570073558310
-        1.0717361450754319       -0.4768298361768399       -0.2743618442014849       -0.9704818863270434
-        1.5629352658655358       -0.5825571755013194        0.8980694679718081       -0.3320651923316272
+        1.2409576117577861        0.5948635148419659        0.1621242452179784        0.9769593393400061
-        2.3675538707881207       -1.2510734606743139       -1.2841479649849272       -0.1970026432733326
-        2.8730870255581995       -1.3036666958097811        0.5453929012673580       -0.1946060569702309
+        5.0473976181400912       -0.6091855328838754       -0.9535296028102866        0.1283355164991325
+        2.5908266609722621       -3.8950957614337525       -0.5029649290944064        0.1235072004109040
