21
s                      x[A]                      y[A]                      z[A]                      q[e]
N 1.5686234433894779 -0.0654094207825781 0.3188117211602917 0.0690680479201058
O 0.2599777792591747 -0.1373287962272609 0.4345465977534210 -0.3117950550350966
N 0.1581563816762871 0.2344252963841562 0.4197124820599794 0.5776243102962968
N -0.6471018518759436 0.5368113801115955 0.3859110249765350 0.0604184539076988
O 0.3397297730328248 0.5168075541136115 0.3019444657511452 -0.3968494342195521
O 0.4308520819170915 0.1273047000913990 -0.0724072264297980 -0.9828651838991298
N 0.2483245843184205 0.1445851283060173 0.0207145883931978 0.7759263489545838
N 0.6921808863475402 0.0668705334490885 0.3928891330042703 0.9970342621901004
O 0.7169724354114764 0.3483486888217472 0.4322203395492815 -0.3970377457969525
O 0.5602907698543818 -0.1809447443496877 0.4003605808551295 -0.3893757401670396
N -1.0267227829638699 -0.1785365727862154 -0.5151686400042996 0.1691966627363242
O 0.0204926897054998 0.2606156895038070 -0.6787038288469789 -0.6800109224217911
O -0.9173254343593215 -0.1369862217514525 0.4908937440144107 -0.9821368279659007
N -0.7748167350779214 -0.0325898734292591 0.4924106776452013 0.8921713087406896
O -0.9048931906345233 0.5496084221966809 0.7258820471181424 -0.3335771210350215
N -0.4149525117080675 0.1700451318226529 0.2054765654538297 0.9988617281482304
N -0.2302314929479148 -0.8995974937151431 0.4323246320833811 0.0655379221577991
N 0.9168478033551835 -0.4716136777212517 -0.1535134536517914 0.9908754307264420
O 1.1066536124264426 -0.7971943110748527 -0.2249145147080287 -0.6595771554465193
O 0.9523066891429355 -0.1748565256231956 0.0926903337809058 -0.5578053818499882
N -0.3737469262371098 0.1400567119155906 0.9263157513226815 0.0943160920587207
