25
s                      x[A]                      y[A]                      z[A]                      q[e]
N        1.8729970248842815        1.2456476006459678        0.5545471201770817        0.1158659338886357
O        1.8346462360394498       -0.1883032050703065       -0.3676630521416280       -0.2341991647481463
N        3.2901381242868397       -0.6308220770012103        0.1022169294546933        0.0569852111266852
N        2.0904493480358153       -0.5239055052915588        0.0641208564826672        0.3189271149812888
O        1.7945107398721032       -0.4500764991832265        0.3692486774105154       -0.2877498234141676
N        1.3185704031739653       -0.9106259615097629       -0.1129387699023959        0.5692545008206258
O        0.7978296817978295       -0.4991108124044210       -0.6851863827850725       -0.2058946535748549
O        1.1124839150219146       -0.6973654911774504       -0.0439939000183228       -0.9992971180892700
N        0.6653640189026586       -0.3925335472054270       -0.1941242848143055        0.6691943173322236
N        0.8327103860607223       -2.0694754439650449       -0.5868262790871132        0.0628076875181509
N       -0.5881746812493157        1.6256566776580765       -0.0816084098855105        0.7576134719858190
O       -0.5705296301208417        1.2713075519810195       -0.1602836485193161       -0.9235083265987739
N       -0.6344526625446597        0.8536269714017291       -0.0839671878627599        0.9955526175656415
O       -0.5933276636617598        1.4259447693349330       -0.0324382134936316       -0.9936641819349231
O       -0.4681654846567888       -0.2042238373906305        0.0387684652029607       -0.9934394819660318
N       -0.5015392941392151        0.2149665624068273       -0.1319333910883025        0.8475065253219278
N       -0.4400031213441332       -0.4849353048835021       -0.0573328734321919        0.9207393412409772
O       -0.6984276931702190       -0.3113545066877854       -0.3139058347675738       -0.6738758902636315
N       -2.8240204422558959       -0.0985565131657015        0.2771233900647254        0.1207489421105395
N       -1.1414067302679682       -0.7322173408602968       -0.0174779250473767        0.4308753055723465
O       -1.3631733293257635       -0.4620019363372255        0.2989982527167498       -0.7095764258838037
N       -1.5412206755884188       -0.2669252654569865        0.1136413589466553        0.9977500474782615
O       -1.5149960677469037       -0.4652377213649206       -0.0194192681971245       -0.9963537733476465
O       -1.6921323319760002       -1.9134375045135794        0.5615313974185071       -0.1586318904925156
N       -1.7133964811834363       -1.8737788893936818        0.3920132873521118        0.3123697133706422

        RMSE         4.536452463E-01 kcal/mol

Coordinates in bohr
s                   x[bohr]                   y[bohr]                   z[bohr]                      q[e]
+        3.5394514108286126        2.3539328140545446        1.0479421807960332        0.1158659338886357
-        3.4669789232166175       -0.3558414861288012       -0.6947824749975980       -0.2341991647481463
+        6.2174599698296555       -1.1920809594247568        0.1931620020546137        0.0569852111266852
+        3.9503767469295639       -0.9900379206206430        0.1211708576820282        0.3189271149812888
-        3.3911338275509699       -0.8505213189611419        0.6977788724934006       -0.2877498234141676
+        2.4917369391333040       -1.7208336699851536       -0.2134233440616278        0.5692545008206258
-        1.5076795933590643       -0.9431827416991154       -1.2948146083568994       -0.2058946535748549
-        2.1022899183685184       -1.3178297876707585       -0.0831364222254042       -0.9992971180892700
+        1.2573557694599702       -0.7417808992727292       -0.3668417325994094        0.6691943173322236
+        1.5735945714790212       -3.9107418124541828       -1.1089409506961245        0.0628076875181509
+       -1.1114890614896624        3.0720458947954423       -0.1542175442177202        0.7576134719858190
-       -1.0781447473871459        2.4024230944703686       -0.3028921980906515       -0.9235083265987739
+       -1.1989417717769226        1.6131211892532897       -0.1586749885854828        0.9955526175656415
-       -1.1212267869784829        2.6946450840721594       -0.0612993395020943       -0.9936641819349231
-       -0.8847045473935599       -0.3859271209583258        0.0732617815379376       -0.9934394819660318
+       -0.9477719070785530        0.4062279290800421       -0.2493179759598103        0.8475065253219278
+       -0.8314853936869994       -0.9163949147952111       -0.1083434287723801        0.9207393412409772
-       -1.3198370585270067       -0.5883747455669421       -0.5931960568939324       -0.6738758902636315
+       -5.3366252085579369       -0.1862448177632544        0.5236873101807520        0.1207489421105395
+       -2.1569461179607758       -1.3836902385369625       -0.0330284915808214        0.4308753055723465
-       -2.5760242539542233       -0.8730571291085594        0.5650248096250843       -0.7095764258838037
+       -2.9124849757551989       -0.5044156476788334        0.2147510449340251        0.9977500474782615
-       -2.8629276491872018       -0.8791718766117600       -0.0366970984493786       -0.9963537733476465
-       -3.1976666754669263       -3.6158728417101420        1.0611405519665953       -0.1586318904925156
+       -3.2378500937598518       -3.5409289206185948        0.7407977506358924        0.3123697133706422
