21
s                      x[A]                      y[A]                      z[A]                      q[e]
N -2.0231898980775971 1.5217715542379466 -0.4871245607145431 0.0707249461841811
O -1.7030510099549212 0.1183722819364311 0.2163067807133650 -0.3496602100029151
N -1.5436590250906901 0.2236561901972188 -0.2966137606228103 0.9824851761690530
N -3.1158332898030499 -0.5054269258989329 0.0664790643361583 0.1071394941056757
O -1.5903711362935662 0.0819168097687698 -0.4127454514589712 -0.8194842575378962
N -0.6232066712450951 -0.3366119273337416 0.2429806044257590 0.3116552922920345
N -0.8479442905868070 -1.8293444503419698 0.4609900710007568 0.0918298459672651
N -1.3971537440800783 -0.6756413365964062 0.2137730103978052 0.5593901217632046
O -1.0565593724871192 -0.5770719698655367 0.2052248540207700 -0.9963138680841535
N 1.3074244065028824 -0.4745675384109219 0.0170926365177773 0.9989733053171830
O 1.3584599601677325 -0.5624416040916298 0.0245272237520024 -0.8354521971080898
N 1.7604502822077175 -1.2138617650873069 -0.1329066886785744 0.2899344186932475
O 1.4898040045141969 -0.9381157652968484 -0.1057354998426106 -0.8678253524624289
N 0.2430155719054790 0.2881633568032138 0.1406103406180344 0.9219570073558310
O 0.4636543547445997 0.2426533469093543 0.2825391395270146 -0.9704818863270434
O 0.4855939998376199 0.3812847008449474 -0.3777035518741580 -0.3320651923316272
N 0.8230213691849724 -0.1760606554236379 0.0023176524909609 0.9769593393400061
O 0.8872581994605613 1.0643778028763671 0.5584643468124068 -0.1970026432733326
O 0.7987146266778857 1.1068758699316112 -0.4415409878793994 -0.1946060569702309
N 2.1035948748125004 1.5991466582425080 -0.0657888435218169 0.1283355164991325
N 0.0221414326812836 2.1926627364022124 0.2122241197156949 0.1235072004109040
