21
s                      x[A]                      y[A]                      z[A]                      q[e]
N 0.0266064537088407 -0.0476728359395824 0.3759921543200150 0.0707249461841811
O 0.1094647056725067 0.2821572905559652 0.3108368983423774 -0.3496602100029151
N 0.3677278978343302 -0.1705919334692096 0.3179009277238171 0.9824851761690530
N 0.0358064507705818 -0.0153145718312168 -0.1890067342101797 0.1071394941056757
O 0.2635412078922768 -0.3378660941735230 0.3180303079539787 -0.8194842575378962
N 0.0908780309510523 0.1217756773154593 0.2877175605954609 0.3116552922920345
N 0.0292334369423902 -0.0121954543421809 0.2459343105576076 0.0918298459672651
N 0.0778666379388982 0.0346697382021782 -0.5525229185153109 0.5593901217632046
O 0.0601693847051829 0.0644650376510294 -0.1939829138478394 -0.9963138680841535
N 0.2177236943515398 0.0812373117731470 -0.4225659176256750 0.9989733053171830
O 0.2060470036477031 0.1018305416714972 -0.3355044674260012 -0.8354521971080898
N 0.0287643122760487 0.0053436478815556 0.4298583718614127 0.2899344186932475
O 0.0410732528353408 -0.0002729137744352 0.0355180192157131 -0.8678253524624289
N -0.0058478853831720 0.0739028625241805 -0.3428406613879366 0.9219570073558310
O 0.1257656692248177 0.2452961049933495 -0.1859914934694137 -0.9704818863270434
O 0.2631311747239715 -0.4154328265325993 -0.2051176830781769 -0.3320651923316272
N 0.0840633811807024 0.0096870847823490 0.4019538027710857 0.9769593393400061
O 0.1958396535812435 -0.5161926404612942 -0.0965911794276551 -0.1970026432733326
O 0.2270334564548001 0.4882538073314493 -0.0746682197659749 -0.1946060569702309
N 0.0233243323995682 0.0001177694427641 0.1844729217387381 0.1283355164991325
N 0.0369818228748523 0.0059403475441097 -0.1465497361780196 0.1235072004109040
