21
s                      x[A]                      y[A]                      z[A]                      q[e]
N        1.9330660527872776        1.3869163604389552        0.5224842338957546        0.0707249461841811
O        1.6726449899474862        0.0043698282436383       -0.1884697148542681       -0.3496602100029151
N        1.4529825525344631        0.0800670291414497        0.3022282433447812        0.9824851761690530
N        3.0459329103643449       -0.6625034166762280        0.0882656073252442        0.1071394941056757
O        1.4974258001080392       -0.0228163968963906        0.4235041193251110       -0.8194842575378962
N        0.5208795695712441       -0.6147859006912153       -0.0334358437477074        0.3116552922920345
N        0.7930087013665231       -1.9513444616158475       -0.5114918213542032        0.0918298459672651
N        1.2855634971431324       -0.9388394908347195       -0.1777458707629981        0.5593901217632046
O        0.9638664836311459       -0.7885677185490008       -0.1449777386470761       -0.9963138680841535
N       -0.7335855838722369        0.8779186083764807        0.0169445118743263        0.9989733053171830
O       -0.7172720849987217        0.9734878110970282        0.0317513255609964       -0.8354521971080898
N       -0.5516805630687569        1.7312501802152793       -0.0762880739244554        0.2899344186932475
O       -0.5619469532327372        1.3437862294847711       -0.0837548012002031       -0.8678253524624289
N       -0.5130625349849793       -0.4029601465332846       -0.0014028930548900        0.9219570073558310
O       -0.6259325196504493       -0.2442339434756123        0.1678941215474489       -0.9704818863270434
O       -0.8136742822784823       -0.2658787278425916       -0.4763775777739770       -0.3320651923316272
N       -0.6067280939939904        0.3380938771826786       -0.0613726272100775        0.9769593393400061
O       -1.4100836278989419       -0.5637927986977872        0.6177296884300167       -0.1970026432733326
O       -1.5722638378009446       -0.5489047255119327       -0.3735945782802083       -0.1946060569702309
N       -2.7494963641357302       -0.0384534039124540        0.2994876174512636        0.1283355164991325
N       -1.6699271873620682       -1.9263981190608612        0.1625602477027150        0.1235072004109040

        RMSE         6.095669540E-01 kcal/mol

Coordinates in bohr
s                   x[bohr]                   y[bohr]                   z[bohr]                      q[e]
+        3.6529654221877594        2.6208920801463793        0.9873521069326261        0.0707249461841811
-        3.1608409361199112        0.0082577785957668       -0.3561561440176977       -0.3496602100029151
+        2.7457390893587763        0.1513047567563907        0.5711286072998589        0.9824851761690530
+        5.7559789971072997       -1.2519500146981415        0.1667978241419159        0.1071394941056757
-        2.8297246553987532       -0.0431167413039242        0.8003067985276717       -0.8194842575378962
+        0.9843197308360085       -1.1617769780993115       -0.0631845874567685        0.3116552922920345
+        1.4985692606877037       -3.6875066088829072       -0.9665794577710461        0.0918298459672651
+        2.4293629264863075       -1.7741495134418948       -0.3358910156730882        0.5593901217632046
-        1.8214436755709464       -1.4901770194347224       -0.2739682203311767       -0.9963138680841535
+       -1.3862758431026010        1.6590257302746154        0.0320204867720449        0.9989733053171830
-       -1.3554477980836925        1.8396253494448092        0.0600013094305318       -0.8354521971080898
+       -1.0425251729383149        3.2715886952563866       -0.1441635663559015        0.2899344186932475
-       -1.0619258386453319        2.5393879448878405       -0.1582736359605504       -0.8678253524624289
+       -0.9695476763547364       -0.7614843164222626       -0.0026510836570490        0.9219570073558310
-       -1.1828410351570995       -0.4615352637094551        0.3172739077990062       -0.9704818863270434
-       -1.5376215488347955       -0.5024379782076370       -0.9002231543018029       -0.3320651923316272
+       -1.1465499302696764        0.6389048325694381       -0.1159774570268674        0.9769593393400061
-       -2.6646718707209853       -1.0654139810441947        1.1673399306971268       -0.1970026432733326
-       -2.9711480504050343       -1.0372796001871574       -0.7059914349055093       -0.1946060569702309
+       -5.1957951111585992       -0.0726664019861466        0.5659495749487725        0.1283355164991325
+       -3.1557050335704098       -3.6403648536221294        0.3071943470447164        0.1235072004109040
