25
s                      x[A]                      y[A]                      z[A]                      q[e]
N 1.8708070442593976 1.2423639652616236 0.5533329238162671 0.1158659338886357
O 1.8368840473643917 -0.1785593852894206 -0.3668638449287843 -0.2341991647481463
N 3.2893359428491955 -0.6334369703330817 0.1012949412690590 0.0569852111266852
N 2.0869179430656777 -0.5357644907112940 0.0606382823744412 0.3189271149812888
O 1.7975943124786011 -0.4392216164946390 0.3732571828236599 -0.2877498234141676
N 1.3277832287191771 -0.9005216084307375 -0.1097172137027736 0.5692545008206258
O 0.7937027752642686 -0.5024063056708327 -0.6849741718985036 -0.2058946535748549
O 1.1009956051854668 -0.7057440154857461 -0.0477417179363440 -0.9992971180892700
N 0.6726427926765146 -0.3879255722983762 -0.1923773917755078 0.6691943173322236
N 0.8325351037298032 -2.0748937806077574 -0.5872969173161464 0.0628076875181509
N -0.5860577692278451 1.6195975947155004 -0.0823540790457286 0.7576134719858190
O -0.5718717333959940 1.2722207922932405 -0.1592019914982420 -0.9235083265987739
N -0.6307824598284041 0.8492928259544432 -0.0847705643949902 0.9955526175656415
O -0.5944625089631594 1.4263192173021233 -0.0320565987877553 -0.9936641819349231
O -0.4709619942001987 -0.2071023023021410 0.0382992269127885 -0.9934394819660318
N -0.4977492393895627 0.2143309936911425 -0.1323764076638547 0.8475065253219278
N -0.4368503454936936 -0.4801114606314033 -0.0576184198427389 0.9207393412409772
O -0.6994291793805597 -0.3141526756462915 -0.3119687496332770 -0.6738758902636315
N -2.8245590473945943 -0.0994002308872412 0.2764043020311440 0.1207489421105395
N -1.1414516321616937 -0.7287277068124365 -0.0184053183012875 0.4308753055723465
O -1.3624222940068227 -0.4638259755219711 0.2990960876974081 -0.7095764258838037
N -1.5399720285717367 -0.2662520827784917 0.1119258096957111 0.9977500474782615
O -1.5128733848892146 -0.4670126944795577 -0.0175505913049927 -0.9963537733476465
O -1.6896959908506226 -1.9156191416758499 0.5608781499326947 -0.1586318904925156
N -1.7167835208226399 -1.8686794353334677 0.3916463860610440 0.3123697133706422
