21
s                      x[A]                      y[A]                      z[A]                      q[e]
N        1.9618113956980467        1.4110456603232580       -0.8087797438564972        0.0707249461841811
O        1.6564210471330247       -0.0557355309019823       -0.3581353984460329       -0.3496602100029151
N        1.5418067388672729        0.3191704110127071       -0.0145359534767720        0.9824851761690530
N        3.1112106113075653       -0.4669527706558135        0.0574561407596979        0.1071394941056757
O        1.6093490462183666        0.3007527708456667        0.1697617466402145       -0.8194842575378962
N        0.6500691925231018       -0.3152414192558858        0.0521805999219487        0.3116552922920345
N        0.8770135995270979       -1.7408681445853036        0.7158837586481148        0.0918298459672651
N        1.4063145380020994       -0.6496485643849609        0.2253500820036757        0.5593901217632046
O        1.0750515642304395       -0.5278975570228372        0.1572887846859339       -0.9963138680841535
N       -1.2691889025622818       -0.4855744109504004       -0.1780565032048571        0.9989733053171830
O       -1.3170167565232063       -0.5556054268698079       -0.2080192245729184       -0.8354521971080898
N       -1.7241204278414042       -1.2342249581207345       -0.2035572656438240        0.2899344186932475
O       -1.4649832426840674       -0.9423423129574805       -0.1458708421984750       -0.8678253524624289
N       -0.2332057859280721        0.2855469278045147        0.0123040716928266        0.9219570073558310
O       -0.4105195038207347        0.2730015353029096       -0.1847357391413144       -0.9704818863270434
O       -0.5857204711314001        0.3464681201441728        0.4629343935515730       -0.3320651923316272
N       -0.8136622638176881       -0.1917726981499513       -0.0277699844723527        0.9769593393400061
O       -0.7535250007938081        1.1398457011503931       -0.4385947830738633       -0.1970026432733326
O       -0.9421762477339093        1.0210456808248825        0.5415058579253825       -0.1946060569702309
N       -2.1110371118581903        1.5775634136212140       -0.0929102985823414        0.1283355164991325
N       -0.0549043811141524        2.1777189598627591        0.3043731613541919        0.1235072004109040

        RMSE         5.974552932E-01 kcal/mol

Coordinates in bohr
s                   x[bohr]                   y[bohr]                   z[bohr]                      q[e]
+        3.7072862476714841        2.6664898485267527       -1.5283722117067131        0.0707249461841811
-        3.1301821275254893       -0.1053248888617380       -0.6767778188947172       -0.3496602100029151
+        2.9135924748444211        0.6031446641638255       -0.0274689710434956        0.9824851761690530
+        5.8793359739895266       -0.8824128500632084        0.1085763702615834        0.1071394941056757
-        3.0412289376194850        0.5683403683708877        0.3208032077293660       -0.8194842575378962
+        1.2284527364661801       -0.5957199457942518        0.0986070429145693        0.3116552922920345
+        1.6573155114081661       -3.2897640138001440        1.3528242415082889        0.0918298459672651
+        2.6575493230737228       -1.2276578644844325        0.4258499373364099        0.5593901217632046
-        2.0315530271405660       -0.9975818050714191        0.2972327256625203       -0.9963138680841535
+       -2.3984194273130939       -0.9176026502267673       -0.3364780259138839        0.9989733053171830
-       -2.4888009724676343       -1.0499420906020247       -0.3930993632729230       -0.8354521971080898
+       -3.2581154159274299       -2.3323471480528459       -0.3846674829138933        0.2899344186932475
-       -2.7684171070580081       -1.7807688879201078       -0.2756559414449943       -0.8678253524624289
+       -0.4406950662762035        0.5396054895164117        0.0232513257274406        0.9219570073558310
-       -0.7757694313800270        0.5158981335520059       -0.3490999525611042       -0.9704818863270434
-       -1.1068512765124745        0.6547298582747050        0.8748192178673835       -0.3320651923316272
+       -1.5375988372354450       -0.3623978778435010       -0.0524776651609632        0.9769593393400061
-       -1.4239558801856900        2.1539962004546940       -0.8288240200641884       -0.1970026432733326
-       -1.7804550701285953        1.9294966983406552        1.0232977668100502       -0.1946060569702309
+       -3.9892819820894614        2.9811627972864421       -0.1755750185551379        0.1283355164991325
+       -0.1037542433935072        4.1152924123575030        0.5751819148992074        0.1235072004109040
