21
s                      x[A]                      y[A]                      z[A]                      q[e]
N 0.0265694257703454 -0.0476196787394695 0.3759860923803094 0.0707249461841811
O 0.1092876238237717 0.2824612886642688 0.3107519178790229 -0.3496602100029151
N 0.3679996160930775 -0.1709640569111408 0.3180709430143942 0.9824851761690530
N 0.0358293394438386 -0.0152388748525851 -0.1889931123986319 0.1071394941056757
O 0.2632659736547612 -0.3374918379265443 0.3179373119517666 -0.8194842575378962
N 0.0909957614631917 0.1219598883099628 0.2878992009602800 0.3116552922920345
N 0.0293148343584278 -0.0123093697464705 0.2459274693845705 0.0918298459672651
N 0.0780587142173426 0.0349119917325537 -0.5523600409540154 0.5593901217632046
O 0.0599770115178774 0.0642106606362554 -0.1942361549245556 -0.9963138680841535
N 0.2180337798671659 0.0813720364607266 -0.4226387408002314 0.9989733053171830
O 0.2057506333631579 0.1017599622535366 -0.3354626423268887 -0.8354521971080898
N 0.0289859882209672 0.0053403388696982 0.4298825626129907 0.2899344186932475
O 0.0407627267720491 -0.0003515349843206 0.0355596186087057 -0.8678253524624289
N -0.0055551816307151 0.0741131264633328 -0.3428750664238108 0.9219570073558310
O 0.1254967823385328 0.2451161592407261 -0.1859785583455091 -0.9704818863270434
O 0.2629014318534620 -0.4155706642746457 -0.2051014376607803 -0.3320651923316272
N 0.0843802627343838 0.0098462632714923 0.4018825951401008 0.9769593393400061
O 0.1958549048094635 -0.5161072637004972 -0.0967082757300304 -0.1970026432733326
O 0.2271056790871367 0.4883419552776167 -0.0746337031361865 -0.1946060569702309
N 0.0233058448041251 0.0000886207326763 0.1844554665949502 0.1283355164991325
N 0.0369510186856549 0.0058908451344116 -0.1465151287567299 0.1235072004109040
