21
s                      x[A]                      y[A]                      z[A]                      q[e]
N -1.7004818820010037 0.1554416201791452 -1.7750491707121154 0.0707249461841811
O -1.6288940755679524 0.1945285604699922 -0.1933986940738945 -0.3496602100029151
N -1.4548795785691651 -0.2432757618315982 -0.4567071737824074 0.9824851761690530
N -3.1288278078827734 -0.1525357114091243 0.0888782961796564 0.1071394941056757
O -1.5183894916587732 -0.4065283251455555 -0.3806637649346072 -0.8194842575378962
N -0.6659397676966764 -0.2482705458793186 0.2942520627173383 0.3116552922920345
N -1.1083034289578657 -0.3503275028549680 1.8034016755790385 0.0918298459672651
N -1.4461354189242388 -0.3060513860843432 0.6139904694575924 0.5593901217632046
O -1.1141606245988880 -0.2394086907662914 0.4938662798478509 -0.9963138680841535
N 0.9601324101438737 0.7752884012019947 -0.1342531028002921 0.9989733053171830
O 0.9661717515973902 0.8721842431313167 -0.1525375001232966 -0.8354521971080898
N 1.0607088511633940 1.6469188854601275 -0.0772844607103894 0.2899344186932475
O 0.9531056577874446 1.2746805356375861 -0.0397824127214124 -0.8678253524624289
N 0.3750886794564932 -0.3857799336655542 0.0360196896251494 0.9219570073558310
O 0.4944108679613813 -0.2607119531743868 -0.1689029078256389 -0.9704818863270434
O 0.8000086356975988 -0.3276277132702834 0.4288331866180649 -0.3320651923316272
N 0.6970099939751877 0.2968674972262727 0.0139916459295622 0.9769593393400061
O 1.1174825138980464 -0.8502979142433682 -0.5986143839141790 -0.1970026432733326
O 1.3907080289307594 -0.8094973717121523 0.3674955959025147 -0.1946060569702309
N 2.5713894052329005 -0.7390105026300801 -0.4570605781122661 0.1283355164991325
N 0.9978653729680084 -2.1860690625114585 -0.0220544030365511 0.1235072004109040
