21
s                      x[A]                      y[A]                      z[A]                      q[e]
N 0.3163585446626667 1.4721060263527848 -0.1518392674115337 0.0707249461841811
O -0.2541295489677031 0.2095068263181831 0.6196947701764037 -0.3496602100029151
N 0.2392403829705990 0.1865566123180741 0.3840010236637325 0.9824851761690530
N 0.1981365780304124 0.3421867159128624 -0.1982795404778357 0.1071394941056757
O 0.2587049223644883 0.0282459356818789 0.2824619162035584 -0.8194842575378962
N 0.4225614409971771 0.4473841993029170 0.4764565296121054 0.3116552922920345
N 1.7091833029514645 0.3614132934353845 -0.0447286801242826 0.0918298459672651
N 0.6333052452919439 0.5407132623827033 -0.3369356182827321 0.5593901217632046
O 0.4980472303402867 0.4913562964908577 -0.0127982598394023 -0.9963138680841535
N 0.0435004303861308 0.1569799732741270 -0.3922803348318823 0.9989733053171830
O 0.0000784262424566 0.1821186783703492 -0.3036262835746059 -0.8354521971080898
N -0.3590361951467765 0.1611068405082032 0.3901386338580654 0.2899344186932475
O -0.2689838682748592 0.1377476648308722 0.0140719552935254 -0.8678253524624289
N 0.1359892465829359 0.1583930249640967 -0.3270713583861592 0.9219570073558310
O 0.2476293845084054 0.2936344916641821 -0.1268230035509703 -0.9704818863270434
O 0.2183070531616372 -0.3805989954747072 -0.1301277772395880 -0.3320651923316272
N 0.0278880726288425 0.1006553835178593 0.4185289033125398 0.9769593393400061
O 0.3167090683028464 -0.2949253329326657 0.2455947566120312 -0.1970026432733326
O 0.4782837784089619 0.6708324801589165 0.0203145244916300 -0.1946060569702309
N 0.5654744102291891 0.5028174385512761 0.3683128884591977 0.1283355164991325
N -0.3812152573185948 0.3265969921677622 0.1938752873005701 0.1235072004109040
