21
s                      x[A]                      y[A]                      z[A]                      q[e]
N       -1.7006844951545499        0.1557784589143461       -1.7747357407962254        0.0707249461841811
O       -1.6285019907615250        0.1931316901810273       -0.1945448775711073       -0.3496602100029151
N       -1.4553396258760611       -0.2416181737839114       -0.4551892430848870        0.9824851761690530
N       -3.1288945909542298       -0.1519806598171396        0.0892147146550757        0.1071394941056757
O       -1.5178628943741184       -0.4079819654377109       -0.3819956150834306       -0.8194842575378962
N       -0.6661841613384798       -0.2470469151943379        0.2953565552027839        0.3116552922920345
N       -1.1083567109276364       -0.3498130008776807        1.8037365391667177        0.0918298459672651
N       -1.4463723205606960       -0.3044339385912916        0.6152092462278140        0.5593901217632046
O       -1.1137540804820707       -0.2410257080442258        0.4923949992949996       -0.9963138680841535
N        0.9595405043382104        0.7763757333501674       -0.1329877945435054        0.9989733053171830
O        0.9665114800548956        0.8710218969211008       -0.1536379216031138       -0.8354521971080898
N        1.0602458920801290        1.6474692805271174       -0.0765150133845059        0.2899344186932475
O        0.9535575514641227        1.2735632713996556       -0.0408538669025119       -0.8678253524624289
N        0.3748327258839397       -0.3844437131874598        0.0374199642888569        0.9219570073558310
O        0.4945624199547324       -0.2619348292696614       -0.1702129817148703       -0.9704818863270434
O        0.8001945416741415       -0.3284844783879773        0.4278556304691322       -0.3320651923316272
N        0.6965145907124486        0.2981062522540456        0.0153113399254235        0.9769593393400061
O        1.1173956216956917       -0.8507590778587306       -0.5992878057497644       -0.1970026432733326
O        1.3907595450539012       -0.8099749136558364        0.3669036191521391       -0.1946060569702309
N        2.5713883554517651       -0.7388044136019064       -0.4567245931064537        0.1283355164991325
N        0.9979991979157693       -2.1858241872135586       -0.0216908986033472        0.1235072004109040

        RMSE         9.459021907E-01 kcal/mol

Coordinates in bohr
s                   x[bohr]                   y[bohr]                   z[bohr]                      q[e]
+       -3.2138279216546102        0.2943786235939988       -3.3537644951663794        0.0707249461841811
-       -3.0774227573021364        0.3649660005889144       -0.3676365377201161       -0.3496602100029151
+       -2.7501933124320144       -0.4565921753848671       -0.8601830046848851        0.9824851761690530
+       -5.9127538523298933       -0.2872018234207675        0.1685913770589620        0.1071394941056757
-       -2.8683451663618076       -0.7709741788032749       -0.7218670936334911       -0.8194842575378962
+       -1.2589056140475381       -0.4668510098565048        0.5581429986919280        0.3116552922920345
+       -2.0944906329664645       -0.6610507667833554        3.4085680615062337        0.0918298459672651
+       -2.7332475613026119       -0.5752967672319879        1.1625769852199179        0.5593901217632046
-       -2.1046901832222296       -0.4554725773981446        0.9304916942125497       -0.9963138680841535
+        1.8132687594828967        1.4671375064832919       -0.2513105097158801        0.9989733053171830
-        1.8264419944146488        1.6459928344576396       -0.2903335943144458       -0.8354521971080898
+        2.0035743616731607        3.1132657403013053       -0.1445924197824563        0.2899344186932475
-        1.8019626171293501        2.4066857863874676       -0.0772026196116536       -0.8678253524624289
+        0.7083311947794535       -0.7264933285783590        0.0707134841303518        0.9219570073558310
-        0.9345875256581038       -0.4949850900382149       -0.3216559184386660       -0.9704818863270434
-        1.5121485308503779       -0.6207457006171481        0.8085299628217495       -0.3320651923316272
+        1.3162218188318804        0.5633391730467915        0.0289342390728383        0.9769593393400061
-        2.1115716987905406       -1.6077016559000539       -1.1324898231936258       -0.1970026432733326
-        2.6281546465182006       -1.5306307553008827        0.6933473546368265       -0.1946060569702309
+        4.8592197539952409       -1.3961380019870733       -0.8630843957323618        0.1283355164991325
+        1.8859451574873869       -4.1306090722350843       -0.0409898577754020        0.1235072004109040
