25
s                      x[A]                      y[A]                      z[A]                      q[e]
N 2.3479017768150419 -0.2584486446692544 -0.4691373787578537 0.1158659338886357
O 1.4528938517699035 0.9353341331653078 0.3933452828751294 -0.2341991647481463
N 2.3791289963268549 2.1322016297340380 -0.1453590358693405 0.0569852111266852
N 1.4777260926595928 1.3402631250648178 -0.0540719420789511 0.3189271149812888
O 1.2898193945486198 1.0963509737592725 -0.3554491687799582 -0.2877498234141676
N 0.5726601182068026 1.2291015559560647 0.0769560560941337 0.5692545008206258
O 0.5989205034370850 0.5834996647674333 0.5793556675683462 -0.2058946535748549
O 0.5150004139858974 0.9401124641329484 0.0015360374899146 -0.9992971180892700
N 0.3920199768628481 0.4225143815677795 0.1301790359957382 0.6691943173322236
N -0.4689157665130488 1.8768695142175014 0.5197950883456791 0.0628076875181509
N 0.5617684515538984 -1.9474176388917999 -0.0737545108092753 0.7576134719858190
O 0.4018963596672778 -1.6547644059626445 0.0704414346177908 -0.9235083265987739
N 0.0914983433377607 -1.3598394282717161 0.1055439881310993 0.9955526175656415
O 0.4284310795493068 -1.7906978538825689 -0.0767223311317499 -0.9936641819349231
O -0.4200315889209397 -0.4459127829574880 0.1684368818189776 -0.9934394819660318
N -0.1376782198247214 -0.7926884606525990 0.2457394694679470 0.8475065253219278
N -0.5341653035399518 -0.2115604846842647 0.3135219361179626 0.9207393412409772
O -0.5315665180785543 -0.5110999999434599 0.5836110908339238 -0.6738758902636315
N -2.8515380913798132 0.1400952979440783 -0.4542117098844093 0.1207489421105395
N -1.1853805367339656 -0.4673520526174435 0.5802582253962488 0.4308753055723465
O -1.5194595091698062 0.0749956042038763 0.2414472292694695 -0.7095764258838037
N -1.6113533773482258 0.0237454143345812 -0.0637812743959732 0.9977500474782615
O -1.5842638089764209 -0.1972403212069148 0.0263630336914328 -0.9963537733476465
O -2.1330551631649737 -0.6184848258873917 1.4387059414493824 -0.1586318904925156
N -2.1043459879067665 -0.7320521318903819 1.3086900145622387 0.3123697133706422
