21
s                      x[A]                      y[A]                      z[A]                      q[e]
N -2.1046856282690523 1.5574837504584544 0.4001011345034452 0.0690680479201058
O -1.8184227551524126 -0.3461120518172601 0.4030707030289409 -0.3117950550350966
N -1.9762375112315824 -0.3761976361257680 0.0557661935703195 0.5776243102962968
N -3.3105585265474700 -0.5950815232176843 0.1026949391553537 0.0604184539076988
O -1.8739400210812704 -0.2580655937865703 -0.2613488735954585 -0.3968494342195521
O -0.9258241314294600 -0.1587923011162765 -0.0558573862512270 -0.9828651838991298
N -0.7670719319516321 -0.0034032793666573 -0.0512575503332577 0.7759263489545838
N -1.0057725775141488 -1.3663236581175173 -0.2158911401341265 0.9970342621901004
O -1.0380568952644733 -1.3280775942408403 -0.4920981471242128 -0.3970377457969525
O -1.0227995989954057 -1.4289628069249498 0.0504632917991290 -0.3893757401670396
N 1.8061534278878946 -1.2443325155793672 0.0131435476764675 0.1691966627363242
O 1.4809820456744807 -0.9332868807292597 0.0185038600026817 -0.6800109224217911
O 0.3979131344916428 0.4099554782239599 -0.4057484700844525 -0.9821368279659007
N 0.2345873916582856 0.4938822024591984 -0.2912899802923920 0.8921713087406896
O 0.5507895834270475 0.4830589927245523 0.2744583489123131 -0.3335771210350215
N 0.7912225574150320 -0.1090510763086841 -0.1219882972598863 0.9988617281482304
N 2.2723785360678161 1.7032730810508749 0.0456570640879650 0.0655379221577991
N 1.0741075217068230 1.1004519103480701 -0.0076095280851423 0.9908754307264420
O 0.9610061252858757 1.0784270505668729 -0.3664946589644935 -0.6595771554465193
O 0.9863564047292570 1.1246871592571714 0.3536251394386069 -0.5578053818499882
N -0.1732896341809453 2.2528588623363093 -0.0990876306791132 0.0943160920587207
