25
s                      x[A]                      y[A]                      z[A]                      q[e]
N 1.6791822814932460 0.9702858569161235 -1.4002414851220670 0.1158659338886357
O 1.8821418592826644 0.3104678791102447 0.1365180386911030 -0.2341991647481463
N 3.1113487866202587 1.2224456897317204 0.5097583233760784 0.0569852111266852
N 1.9798835342513326 0.7792202508678413 0.4262149633315269 0.3189271149812888
O 1.5968626158734545 1.0373019507586623 0.2885276273063402 -0.2877498234141676
N 1.3077436349902898 0.2721529614239281 0.8946324237484954 0.5692545008206258
O 0.7374389946659320 0.6530798329856115 0.3545172859256384 -0.2058946535748549
O 1.0380522106895322 0.1746175234177878 0.8090417592364069 -0.9992971180892700
N 0.5374305561355223 0.2437640871445214 0.6048950247627363 0.6691943173322236
N 0.9070868156986335 0.0177310227592550 2.0577637131626507 0.0628076875181509
N -1.7895116140847236 0.3995166626044818 0.6932667915816191 0.7576134719858190
O -1.4982535076800838 0.3432847455891359 0.5098780727984304 -0.9235083265987739
N -1.2000480112719447 0.0836907977131426 0.3064231058793249 0.9955526175656415
O -1.6394052630798162 0.2899934548847820 0.6318278014130407 -0.9936641819349231
O -0.2896427366688847 -0.3482953638876354 -0.0094204086466751 -0.9934394819660318
N -0.6159601679668454 -0.0707526109807867 0.0776276818470500 0.8475065253219278
N -0.0484637060973069 -0.3696317124429606 -0.1586342577656443 0.9207393412409772
O -0.3160222973462122 -0.2025626379939431 -0.3993814807168656 -0.6738758902636315
N -1.7955586952619611 -1.4218758549508896 -1.4851027594117574 0.1207489421105395
N -0.2699113587616718 -0.7738935616781691 -0.7422087732945812 0.4308753055723465
O -0.6447090952338411 -1.0090415369999293 -0.6069277841483831 -0.7095764258838037
N -0.8739267087916314 -0.8472817502564713 -0.7415167332055719 0.9977500474782615
O -0.6949886629334792 -0.8144261359504689 -0.8781465502466043 -0.9963537733476465
O 0.2965693960614830 -1.9390131354821982 -1.3368977839197984 -0.1586318904925156
N 0.2446423542415454 -1.7951016263379482 -1.4275565056515256 0.3123697133706422
