25
s                      x[A]                      y[A]                      z[A]                      q[e]
N -1.7850602858864053 1.0086122684829950 -1.2331426344049126 0.1158659338886357
O -1.8819872262982340 0.2183102195128876 0.2520655066349352 -0.2341991647481463
N -3.3714429439920459 -0.2544194317910773 0.0516147907433373 0.0569852111266852
N -2.1548457655012743 -0.2422405687826049 0.0938530620362731 0.3189271149812888
O -1.8692044410722910 -0.3804911862429119 -0.2695918306579915 -0.2877498234141676
N -1.3940546511363336 -0.5069962897613733 0.6185357573802488 0.5692545008206258
O -0.9390981912004467 -0.4455701408547821 -0.1205698304452167 -0.2058946535748549
O -1.1003164580655915 -0.4588188946956461 0.5902480806941939 -0.9992971180892700
N -0.6358713158850189 -0.4702750694266625 0.2971996295912472 0.6691943173322236
N -1.0277388509666492 -1.3869467325152409 1.4379751030382815 0.0628076875181509
N 1.4924510887883693 -1.2460477538861088 -0.2646245663817862 0.7576134719858190
O 1.2539107093147985 -0.9906731099086226 -0.2720978175937714 -0.9235083265987739
N 1.0763969420105919 -0.6089303899406211 -0.1347249656172609 0.9955526175656415
O 1.3945334275879249 -1.0950607546100244 -0.1868539105013878 -0.9936641819349231
O 0.3882504904224123 0.1245383432952360 0.1980766968972324 -0.9934394819660318
N 0.5973463304957458 -0.1868083475807649 -0.0318945819103085 0.8475065253219278
N 0.1822258627688449 0.3182260442073564 0.1733291391128393 0.9207393412409772
O 0.3968305617393338 0.3432983252949979 -0.1592330282911205 -0.6738758902636315
N 2.2824886531790494 1.4836449288925386 -0.2127972382790038 0.1207489421105395
N 0.5726122603958221 0.9442647479585575 0.0768631546125943 0.4308753055723465
O 0.9899231083010962 0.8681374705662772 0.2580361447546146 -0.7095764258838037
N 1.1659994124583386 0.8242481749796639 0.0032701028596612 0.9977500474782615
O 0.9952165916430662 0.9599045659265790 -0.0682024077524531 -0.9963537733476465
O 0.4745907648291391 2.2112486802638220 0.7219817212645334 -0.1586318904925156
N 0.4836076907686452 2.1895838277833324 0.5451949560523563 0.3123697133706422
