25
s                      x[A]                      y[A]                      z[A]                      q[e]
N 1.9396880581582334 1.2954558119688200 -0.7179400258280400 0.1158659338886357
O 1.8028264965508209 -0.3532138104952658 -0.4183257930277636 -0.2341991647481463
N 3.3541836781772165 -0.4783513834533452 0.0329578820166887 0.0569852111266852
N 2.1568380079768588 -0.3704134401857185 0.0637902136320177 0.3189271149812888
O 1.9201290849800705 -0.0888563239772310 0.3113448685145083 -0.2877498234141676
N 1.4023168690111627 -0.7125130071606125 0.1485421052607966 0.5692545008206258
O 0.6996644838615186 -0.6769968406517537 0.6678067352430829 -0.2058946535748549
O 1.1133039925011581 -0.6855319887784785 0.0526470805452975 -0.9992971180892700
N 0.5728292311547161 -0.6062337942973257 0.1736831439588190 0.6691943173322236
N 0.8825091667028693 -1.8729608733650094 0.7834592040089732 0.0628076875181509
N -1.6897802118521477 -1.1168630851396784 -0.1881162147007360 0.7576134719858190
O -1.4433675156372894 -0.8836694167750524 -0.0613516589671420 -0.9235083265987739
N -1.1917837775849720 -0.5376428010867716 -0.0756956275015027 0.9955526175656415
O -1.5558343884373902 -0.9627760094375371 -0.2087466054125294 -0.9936641819349231
O -0.3334973855014759 0.1221961990451092 -0.0523368694889280 -0.9934394819660318
N -0.6591804598856634 -0.1806516730705331 0.0591187412286583 0.8475065253219278
N -0.1289045015618169 0.2816809462886294 0.0826481975006240 0.9207393412409772
O -0.4538606832232148 0.3156152079025846 0.3166837679523041 -0.6738758902636315
N -2.1112959260151403 1.6944891145654255 -0.0635319176135864 0.1207489421105395
N -0.4712989505244611 0.9414717420577521 0.1870780217200166 0.4308753055723465
O -0.7917370105211500 0.9753720782368911 -0.1551171010976292 -0.7095764258838037
N -1.0687470270024555 0.9115265159503840 0.0021808140774184 0.9977500474782615
O -0.9231354259448747 1.0091098433614922 0.1698102960954829 -0.9963537733476465
O -0.0297369336853322 2.2753131661033792 -0.0734897157959624 -0.1586318904925156
N -0.0893833129468218 2.2222612942941149 0.0852979955407518 0.3123697133706422
