25
s                      x[A]                      y[A]                      z[A]                      q[e]
N 0.0649370131308737 -0.0056468056131364 0.2438635317410512 0.1158659338886357
O -0.1708979461206890 0.4353643023394896 0.3073347778078765 -0.2341991647481463
N -0.0836412587193854 -0.0079228289476017 -0.3914828984086000 0.0569852111266852
N -0.5133379140532079 -0.0258600452605282 0.1398152538576107 0.3189271149812888
O -0.2374573926225270 -0.3459932879214980 0.2739550164428943 -0.2877498234141676
N 0.0316289816677198 0.1124027309782281 -0.5551331203782738 0.5692545008206258
O -0.1566093414205477 -0.4951626413402797 0.0449070286709374 -0.2058946535748549
O -0.0651766888076257 0.1693333667553691 -0.2708096447725128 -0.9992971180892700
N -0.1899624584257410 -0.0199729550257322 0.2407004022271829 0.6691943173322236
N 0.0170613159329586 -0.0190078927464000 0.3813695725036337 0.0628076875181509
N 0.0565607466338552 0.0050258792334754 0.2950055111524028 0.7576134719858190
O 0.0383323857634842 -0.0753184070158120 -0.0576703725405919 -0.9235083265987739
N 0.1045713900241049 -0.0097328674026794 -0.4754567734185914 0.9955526175656415
O 0.0714258622033374 0.0513038811453611 0.0956382660799848 -0.9936641819349231
O -0.0402373294221779 0.1166220422706206 -0.1273282358647523 -0.9934394819660318
N -0.0296572944857549 -0.0529823646612723 0.2985016124969656 0.8475065253219278
N -0.0812288305184553 0.0187968567443531 -0.3998434299124886 0.9207393412409772
O 0.1581903075443532 -0.2552698977386538 -0.2292955106513726 -0.6738758902636315
N -0.0643004708203614 0.0227873469645308 0.2203787835463011 0.1207489421105395
N 0.2648474887855142 0.0764275298339460 -0.4886421261722888 0.4308753055723465
O 0.3467771389014426 -0.2120358505597045 -0.1266977992773455 -0.7095764258838037
N 0.4507619506880213 -0.0075058709345403 0.1033197772799898 0.9977500474782615
O 0.3028065886174959 0.1252441308071251 -0.0356461727401060 -0.9963537733476465
O -0.0329672539995105 -0.3711156484643768 -0.1420625822478689 -0.1586318904925156
N -0.0320805420692357 -0.2007052860787533 -0.0916121009163997 0.3123697133706422
