25
s                      x[A]                      y[A]                      z[A]                      q[e]
N 0.0661293407897297 -0.0064836558263693 0.2430645954635755 0.1158659338886357
O -0.1697433791685750 0.4336767011147817 0.3052477362538487 -0.2341991647481463
N -0.0828139127136854 -0.0083977713603677 -0.3914395639889811 0.0569852111266852
N -0.5148502968323542 -0.0237632176703161 0.1425546961776418 0.3189271149812888
O -0.2362009659261604 -0.3480097075496694 0.2715575489706752 -0.2877498234141676
N 0.0280879050890811 0.1143118086044100 -0.5555782100036245 0.5692545008206258
O -0.1550501847089432 -0.4962299425839894 0.0452640361045437 -0.2058946535748549
O -0.0616061386501074 0.1671208338481411 -0.2699361129412234 -0.9992971180892700
N -0.1922757509372042 -0.0180624939142699 0.2400861258151401 0.6691943173322236
N 0.0167691247422431 -0.0184967500744332 0.3820910824784796 0.0628076875181509
N 0.0560924473551573 0.0059842598058585 0.2938664697556678 0.7576134719858190
O 0.0388186046929797 -0.0763793407428777 -0.0577524612719174 -0.9235083265987739
N 0.1040589693861615 -0.0084406691156186 -0.4760666393033728 0.9955526175656415
O 0.0718700552792061 0.0502271120726004 0.0955639161048599 -0.9936641819349231
O -0.0400184123051313 0.1148536163643192 -0.1284849108506004 -0.9934394819660318
N -0.0300986626812814 -0.0514419640686176 0.2988049717606437 0.8475065253219278
N -0.0813668147298521 0.0204914679651164 -0.3984764492727492 0.9207393412409772
O 0.1580097226343186 -0.2565512124956313 -0.2303670119476019 -0.6738758902636315
N -0.0644692929610611 0.0224832313168753 0.2205844544404649 0.1207489421105395
N 0.2654673661601351 0.0752275098854531 -0.4877094370409555 0.4308753055723465
O 0.3465218870737759 -0.2106200284437572 -0.1276418388396541 -0.7095764258838037
N 0.4509707139288228 -0.0086897906198041 0.1037809577438312 0.9977500474782615
O 0.3027018586666023 0.1263425047424024 -0.0368457977180057 -0.9963537733476465
O -0.0322083208997879 -0.3704212349140685 -0.1427539798034971 -0.1586318904925156
N -0.0331424858801478 -0.2015305570518445 -0.0902934535369413 0.3123697133706422
