21
s                      x[A]                      y[A]                      z[A]                      q[e]
N       -1.8745458749540165        1.3089419433711014        0.8223716745412218        0.0707249461841811
O       -1.5681699698645357       -0.1798855534423996        0.3903278796207047       -0.3496602100029151
N       -1.5125224880578432        0.2148227130466405        0.0173850840529277        0.9824851761690530
N       -3.0517453892737763       -0.6296123337771004        0.1212302752452600        0.1071394941056757
O       -1.5939494363227515        0.1673532904062156       -0.1460987945516212       -0.8194842575378962
N       -0.5072566089154182       -0.5994353948711756       -0.3394906594394479        0.3116552922920345
N       -0.8569528213179707       -1.8483541062893989       -0.7482284631252434        0.0918298459672651
N       -1.2951277589540482       -0.9053642180589503       -0.3386247673584811        0.5593901217632046
O       -0.9841462912249616       -0.7325016195807295       -0.3247004268959126       -0.9963138680841535
N        0.7822640288910655        0.8711093137016104       -0.1625917648559319        0.9989733053171830
O        0.7623478797618332        0.9695017462909178       -0.1830174168461915       -0.8354521971080898
N        0.6073581165403714        1.7317990327909869       -0.1099945419160658        0.2899344186932475
O        0.5965408340119545        1.3448500756974355       -0.1009802479767966       -0.8678253524624289
N        0.5224360516742287       -0.4150565839008922       -0.1774571414097665        0.9219570073558310
O        0.6654338662037661       -0.2458428011272778       -0.3287387791766089       -0.9704818863270434
O        0.7280189940447175       -0.2670963398851078        0.3424874400263047       -0.3320651923316272
N        0.6263669375667268        0.3295992966037076       -0.1048796956162951        0.9769593393400061
O        1.5743361722097935       -0.6180610836077033       -0.3618754966080514       -0.1970026432733326
O        1.3717109620886836       -0.5470577291756085        0.6196440864446549       -0.1946060569702309
N        2.7244835151781368       -0.0987226715847577        0.3889590176256624        0.1283355164991325
N        1.5972433853215708       -1.9612775734612622        0.2212946889155638        0.1235072004109040

        RMSE         4.230868847E-01 kcal/mol

Coordinates in bohr
s                   x[bohr]                   y[bohr]                   z[bohr]                      q[e]
+       -3.5423783132698081        2.4735417870959111        1.5540572382170492        0.0707249461841811
-       -2.9634117612114284       -0.3399344299325430        0.7376127916138039       -0.3496602100029151
+       -2.8582532610253821        0.4059560931859667        0.0328530475280977        0.9824851761690530
+       -5.7669629903561246       -1.1897948760490606        0.2290920183274112        0.1071394941056757
-       -3.0121278924778823        0.3162518850619566       -0.2760867089620943       -0.8194842575378962
+       -0.9585760661786100       -1.1327687262121899       -0.6415443684916309        0.3116552922920345
+       -1.6194061347293633       -3.4928830437523324       -1.4139468745789316        0.0918298459672651
+       -2.4474367619011135       -1.7108904159206964       -0.6399080696044008        0.5593901217632046
-       -1.8597669578002380       -1.3842274474618759       -0.6135948796525156       -0.9963138680841535
+        1.4782647724013438        1.6461580282315720       -0.3072539058325505        0.9989733053171830
-        1.4406287050733193        1.8320927786429344       -0.3458527940280537       -0.8354521971080898
+        1.1477405003352001        3.2726258763077261       -0.2078595595165557        0.2899344186932475
-        1.1272987989347920        2.5413983228693819       -0.1908250127569625       -0.8678253524624289
+        0.9872610557298259       -0.7843432701407951       -0.3353453962711000        0.9219570073558310
-        1.2574877617296658       -0.4645755640459501       -0.6212262594611497       -0.9704818863270434
-        1.3757565128758296       -0.5047389314950519        0.6472074630588790       -0.3320651923316272
+        1.1836619660428560        0.6228524017245499       -0.1981939008361776        0.9769593393400061
-        2.9750641948781213       -1.1679661768222520       -0.6838455801032605       -0.1970026432733326
-        2.5921580416358778       -1.0337892829567805        1.1709576186399131       -0.1946060569702309
+        5.1485276770113044       -0.1865588116687099        0.7350260173396261        0.1283355164991325
+        3.0183525539568770       -3.7062774698442817        0.4181863550688037        0.1235072004109040
