21
s                      x[A]                      y[A]                      z[A]                      q[e]
N -1.8744453870999218 1.3090395468410250 0.8223977152063926 0.0707249461841811
O -1.5684060881317614 -0.1799689371298806 0.3903256120682119 -0.3496602100029151
N -1.5123379220390931 0.2149946317882237 0.0174328418604381 0.9824851761690530
N -3.0516757212189476 -0.6296197881162922 0.1212791327317910 0.1071394941056757
O -1.5942855294794567 0.1673155125208923 -0.1462582024007814 -0.8194842575378962
N -0.5069432835483197 -0.5994041386820478 -0.3395135047753871 0.3116552922920345
N -0.8568102435535216 -1.8483621173431803 -0.7482251765934199 0.0918298459672651
N -1.2948957903833753 -0.9053937795313203 -0.3385891562268146 0.5593901217632046
O -0.9845184415762154 -0.7326122762034857 -0.3247923929771729 -0.9963138680841535
N 0.7827112257574903 0.8712436699545848 -0.1627525526827633 0.9989733053171830
O 0.7621314923435250 0.9694946529908735 -0.1829262613144569 -0.8354521971080898
N 0.6075848309008784 1.7319211904667817 -0.1100347315254008 0.2899344186932475
O 0.5963641545202053 1.3449002080984809 -0.1009037956292492 -0.8678253524624289
N 0.5228632771939484 -0.4150403441291156 -0.1776550557472508 0.9219570073558310
O 0.6650734280073103 -0.2459534505507096 -0.3286485936315736 -0.9704818863270434
O 0.7277634913113653 -0.2671869457148127 0.3427097219044067 -0.3320651923316272
N 0.6267886124698816 0.3296885958777279 -0.1050341246787378 0.9769593393400061
O 1.5740801026713445 -0.6181242812607438 -0.3616494008914244 -0.1970026432733326
O 1.3715360563829337 -0.5471158193806456 0.6198837829913233 -0.1946060569702309
N 2.7246264528630624 -0.0986327716893966 0.3887300454636757 0.1283355164991325
N 1.5973837975662488 -1.9612588332670666 0.2211372046343570 0.1235072004109040
