21
s                      x[A]                      y[A]                      z[A]                      q[e]
N 0.0270257725887924 -0.0452077747796162 0.3786534175536422 0.0707249461841811
O 0.1030985309396487 0.2919183310908673 0.3142066940369402 -0.3496602100029151
N 0.3750329511188883 -0.1816190497201878 0.3125042865841476 0.9824851761690530
N 0.0335554920842679 -0.0111196081187700 -0.1885478839583868 0.1071394941056757
O 0.2567794043286345 -0.3289899045177038 0.3215262918164435 -0.8194842575378962
N 0.1011825100065677 0.1255816156538685 0.2904236524828873 0.3116552922920345
N 0.0296707254034001 -0.0160280152766011 0.2435937571034307 0.0918298459672651
N 0.0908399658041641 0.0392988847372114 -0.5503783395936892 0.5593901217632046
O 0.0471728612085283 0.0588737734649354 -0.1981172078625746 -0.9963138680841535
N 0.2257213769056504 0.0833402758920432 -0.4267501153879767 0.9989733053171830
O 0.2003714603965059 0.1004705817830415 -0.3290378133579679 -0.8354521971080898
N 0.0342403684125730 0.0059523836433525 0.4285629002255213 0.2899344186932475
O 0.0346076870587484 -0.0018557104674895 0.0413505332930168 -0.8678253524624289
N 0.0008219296861135 0.0776879918806442 -0.3513528677347350 0.9219570073558310
O 0.1207538445556792 0.2424157434025071 -0.1778759046201781 -0.9704818863270434
O 0.2581247337902265 -0.4177032268223451 -0.1996721688287493 -0.3320651923316272
N 0.0919202215287794 0.0122065157100342 0.3957138940255884 0.9769593393400061
O 0.1999325704644594 -0.5151111136598253 -0.0955415611438264 -0.1970026432733326
O 0.2310746814478004 0.4889190187509349 -0.0748692235112386 -0.1946060569702309
N 0.0215276065875638 0.0005554899127170 0.1845343892342352 0.1283355164991325
N 0.0371192090383964 0.0050053786458804 -0.1493011309026525 0.1235072004109040
