25
s                      x[A]                      y[A]                      z[A]                      q[e]
N 1.6884873690634807 0.8771580731011888 -1.2048789313837061 0.1158659338886357
O 1.7380035578286313 -0.5239708647605242 -0.3621944274913041 -0.2341991647481463
N 3.3517904979926421 -0.4007674259100131 -0.0697210100607142 0.0569852111266852
N 2.0963568059848230 -0.3381349156293526 0.0051099929885922 0.3189271149812888
O 1.8732105358526461 0.0106261751679804 0.2472432735480591 -0.2877498234141676
N 1.3201555276222776 -0.5885885764156167 0.5763670532919742 0.5692545008206258
O 0.9607860660067559 -0.2757142896730356 -0.0342487830740570 -0.2058946535748549
O 1.0296712859973784 -0.5094468608744552 0.5206657967823911 -0.9992971180892700
N 0.6380572633135513 -0.2615847638403077 0.3483409358087896 0.6691943173322236
N 1.0481575506164087 -1.6048577888372140 1.4681564988170184 0.0628076875181509
N -0.7069827173905036 1.3117308810963293 0.1137663640234763 0.7576134719858190
O -0.6277989247639794 1.0725486212005475 0.0888428363745752 -0.9235083265987739
N -0.6367630361996799 0.6326047969061100 0.0969096446048883 0.9955526175656415
O -0.6853367173094724 1.1708079661248065 0.1478448280275216 -0.9936641819349231
O -0.4208946039613130 -0.2213452130820365 0.1937999232173832 -0.9934394819660318
N -0.4567680573024515 0.1308291667443220 0.0919352840583382 0.8475065253219278
N -0.3308902203448278 -0.4484321978476704 0.1459732402624189 0.9207393412409772
O -0.5610252426780048 -0.3271974175316670 -0.0916203404701390 -0.6738758902636315
N -2.7390391516175838 -0.3659220110340634 -0.5035456308143015 0.1207489421105395
N -0.9429789069227067 -0.7749391967734832 -0.1254313008979776 0.4308753055723465
O -1.2634294874170573 -0.5859309722814673 0.0250044715823837 -0.7095764258838037
N -1.3251147388330213 -0.3900211120506436 -0.1335299516871962 0.9977500474782615
O -1.2557503375285402 -0.5755915616466658 -0.2296727600162595 -0.9963537733476465
O -1.5170602422051360 -1.9733538697426356 0.0302274726961346 -0.1586318904925156
N -1.4775453906255798 -1.9847621666708994 -0.1187116995870181 0.3123697133706422
