21
s                      x[A]                      y[A]                      z[A]                      q[e]
N        1.7032956687804881        0.0636700133881049       -1.7896050839895787        0.0707249461841811
O        1.6278425724763459       -0.3876903978119378       -0.2676624708646778       -0.3496602100029151
N        1.4641074406876338        0.1157729893740129       -0.4112518184890425        0.9824851761690530
N        3.1349244267999277       -0.1776231821097200        0.0862460857607887        0.1071394941056757
O        1.5299992376525702        0.2421379320070926       -0.3057259249046019       -0.8194842575378962
N        0.5962219865967465       -0.2514754251616387        0.5399359256310471        0.3116552922920345
N        1.1128415976416286       -0.3203730233341340        1.8118121669495408        0.0918298459672651
N        1.4249759941152820       -0.3085087136580150        0.6941812183041568        0.5593901217632046
O        1.0823229854520546       -0.2421451724288403        0.6061041055779689       -0.9963138680841535
N       -1.0063680206186403        0.7785911078655661        0.0287790283276541        0.9989733053171830
O       -1.0213591108247060        0.8756061322297232        0.0369974281426511       -0.8354521971080898
N       -1.0613005530555009        1.6511678328293151       -0.0640744122713152        0.2899344186932475
O       -0.9493596574959964        1.2791744708693393       -0.0464627662642104       -0.8678253524624289
N       -0.4200849862279564       -0.3880663723227845        0.1898717173056177        0.9219570073558310
O       -0.6316971795835357       -0.2643051924414219        0.2938486137843948       -0.9704818863270434
O       -0.5636644592552817       -0.3230144917391864       -0.3735561807299166       -0.3320651923316272
N       -0.7032621258447744        0.2958854505631058        0.0417845550359392        0.9769593393400061
O       -1.3916688809903484       -0.8437958791438871        0.3937139601866604       -0.1970026432733326
O       -1.1441556091831209       -0.8154216186424715       -0.5799371020485707       -0.1946060569702309
N       -2.5802270804463379       -0.7327603764838114       -0.4584566212830104        0.1283355164991325
N       -1.0095658731460799       -2.1901011270281860       -0.0315721507578480        0.1235072004109040

        RMSE         9.405964995E-01 kcal/mol

Coordinates in bohr
s                   x[bohr]                   y[bohr]                   z[bohr]                      q[e]
+        3.2187623246736519        0.1203188877077515       -3.3818634814672577        0.0707249461841811
-        3.0761766373410291       -0.7326286733343573       -0.5058087639975765       -0.3496602100029151
+        2.7667620811446190        0.2187792426424237       -0.7771533055407843        0.9824851761690530
+        5.9241485906597298       -0.3356591677196915        0.1629814814806388        0.1071394941056757
-        2.8912795313226223        0.4575743760781341       -0.5777382675219842       -0.8194842575378962
+        1.1266962646442389       -0.4752196808385635        1.0203310247382447        0.3116552922920345
+        2.1029658405596141       -0.6054172720864234        3.4238287863069075        0.0918298459672651
+        2.6928143642298887       -0.5829969761309393        1.3118123840315090        0.5593901217632046
-        2.0452940217922606       -0.4575880584922702        1.1453707630579375       -0.9963138680841535
+       -1.9017599403883270        1.4713239575827142        0.0543844816960589        0.9989733053171830
-       -1.9300889951998244        1.6546557836855895        0.0699150065359165       -0.8354521971080898
+       -2.0055673820718218        3.1202549912131405       -0.1210830908424600        0.2899344186932475
-       -1.7940297472258799        2.4172894166204841       -0.0878019032705191       -0.8678253524624289
+       -0.7938455733875612       -0.7333391621900105        0.3588055446779691        0.9219570073558310
-       -1.1937346636370327       -0.4994644272507139        0.5552934023979381       -0.9704818863270434
-       -1.0651714546467654       -0.6104089239410223       -0.7059188740515695       -0.3320651923316272
+       -1.3289728122538811        0.5591424660719617        0.0789613652920448        0.9769593393400061
-       -2.6298730423941223       -1.5945431173718596        0.7440115565221954       -0.1970026432733326
-       -2.1621407462624602       -1.5409235360117886       -1.0959222928634866       -0.1946060569702309
+       -4.8759225235332222       -1.3847164271417725       -0.8663574546276301        0.1283355164991325
+       -1.9078030058547908       -4.1386913171397968       -0.0596627181239984        0.1235072004109040
