21
s                      x[A]                      y[A]                      z[A]                      q[e]
N 0.0263641796068976 -0.0446607166535673 0.3778413351878739 0.0707249461841811
O 0.1051116822494030 0.2939753100111002 0.3145394224171679 -0.3496602100029151
N 0.3723458788645574 -0.1840797237899313 0.3126716467374329 0.9824851761690530
N 0.0338290400447944 -0.0100604432796544 -0.1890503691385926 0.1071394941056757
O 0.2593526176356670 -0.3258460394231850 0.3219224110604050 -0.8194842575378962
N 0.0996836175725854 0.1273907560041074 0.2883994496963537 0.3116552922920345
N 0.0291525339991149 -0.0171455608740517 0.2440247462320006 0.0918298459672651
N 0.0889225627547270 0.0414667459899824 -0.5520691277916527 0.5593901217632046
O 0.0488184484034783 0.0563508471405237 -0.1954968611396883 -0.9963138680841535
N 0.2226068083573661 0.0846350265568784 -0.4268620730368133 0.9989733053171830
O 0.2025491340426254 0.0988224113152660 -0.3294856691052645 -0.8354521971080898
N 0.0323366547961542 0.0073360528798948 0.4283766831047170 0.2899344186932475
O 0.0366727207305881 -0.0035442390829201 0.0407112192452161 -0.8678253524624289
N -0.0021859107318181 0.0789488754635135 -0.3508807708973337 0.9219570073558310
O 0.1234983983569985 0.2407617816832410 -0.1779709465743934 -0.9704818863270434
O 0.2599630499356524 -0.4187128682309319 -0.1996471619354272 -0.3320651923316272
N 0.0888436383867946 0.0136502538884270 0.3958266300994409 0.9769593393400061
O 0.1991691671162564 -0.5149268194659242 -0.0942225156607919 -0.1970026432733326
O 0.2306117922810006 0.4892979002988694 -0.0739336123006887 -0.1946060569702309
N 0.0216419874207606 0.0006729354666951 0.1838384798586609 0.1283355164991325
N 0.0377941213598975 0.0048776744938616 -0.1492180487903592 0.1235072004109040
