24
s                      x[A]                      y[A]                      z[A]                      q[e]
N 0.3283209016225700 -1.2956570155158904 0.3183113687918947 0.6959175615854226
O 0.3730362724826526 -1.5410639032817919 0.1137020494541372 -0.4294665048044459
N -0.4342574763917660 -1.2103523451384546 1.3283339373446421 0.7289443612696791
O -0.3498532862000205 -1.2206016785078531 1.1629856817042201 -0.8899528116456963
N 0.9784644529985917 -1.8589618163016350 0.8713197784094016 0.4821174903544280
O 0.7978345304750145 -1.6569893580950559 0.8385874948853206 -0.6035297564939646
N -0.6591054648418869 -2.2064358978675904 -0.3655602798193460 0.0604057803354635
N 2.0331868913656486 0.2528461056664892 -0.1619700593952133 0.6991174418445399
O 1.8083382019823591 0.5224132495828451 -0.3722364949961235 -0.4131324281244263
O 1.9306602035381100 0.0603863944648567 -0.0579134883065510 -0.9286014603942530
O 0.2150448121426349 0.2512441383941321 -0.2323470273585174 -0.1057946580878595
N 0.6267173245714858 -0.3940806695810301 -0.0692819129112789 0.9961038253671308
O 0.4920942876906163 -0.6248366888102919 -0.2695286272850222 -0.3737552305035935
N -0.1734004246953892 0.4613774807313883 -0.4130041725921472 0.9714181100989372
O -0.3662693896013138 0.6176242709245825 -0.8174058653709946 -0.9973398242463560
N -0.4106635260262112 0.8688550651855975 -0.7301861535696416 0.7637225416907655
O -0.3909731931427712 0.8822958589605723 -0.4597252166423076 -0.9974375214017446
O -1.7754879909682642 1.1467716823912772 -0.1364076893312237 -0.4871145088925188
N -1.1078916939851189 0.8474446808143455 0.0526588179014625 0.4662300369825688
N -1.9680064126045764 1.2500206956107045 -0.2343537799019018 0.6223673236702755
N -2.2981146157190073 0.0779183772141750 -0.1855556972361272 0.9509229066582735
O -2.2563763643733585 0.1505437422122915 -0.2126870810339446 -0.9922381659518612
O -1.5263350006311869 1.0738817213209806 0.6488316159696803 -0.6086911331096487
N -1.5513558385842283 1.2256323932282112 0.9531769852417463 0.3897866237988844
