24
s                      x[A]                      y[A]                      z[A]                      q[e]
N -0.8768604416281705 1.0381548342656020 -0.2130246913249257 0.6959175615854226
O -1.0126297624171690 1.1257980764945592 -0.4894742247583970 -0.4294665048044459
N -0.2351282275342884 1.7196097204826870 0.6486413101956985 0.7289443612696791
O -0.3034897762997664 1.6220163781172365 0.5052799133258439 -0.8899528116456963
N -1.7493993421434473 1.4490586877755125 0.1336353164120022 0.4821174903544280
O -1.5018887564697352 1.3483282696130658 0.1672394835649166 -0.6035297564939646
N -0.3290352947671110 1.8914362731119756 -1.3238304470165791 0.0604057803354635
N -1.7085743357068812 -1.1281860279102252 0.2024063094856699 0.6991174418445399
O -1.3729569652985600 -1.3434610453944149 0.0963146276625485 -0.4131324281244263
O -1.7080914478084426 -0.8923276122275587 0.2040744602695612 -0.9286014603942530
O -0.0679084772881524 -0.3912280859846998 -0.0777665479342270 -0.1057946580878595
N -0.7253818798004616 0.0256336922815926 -0.1547633376436693 0.9961038253671308
O -0.6949382227820780 0.1759162065911151 -0.4409046290691147 -0.3737552305035935
N 0.3899628534755231 -0.4748116371879336 -0.2101095617669995 0.9714181100989372
O 0.6600913020252186 -0.6858475636253971 -0.5218202873585199 -0.9973398242463560
N 0.8022500119125796 -0.8412878383991172 -0.3561392398524622 0.7637225416907655
O 0.7681222683516193 -0.7369242730924137 -0.0886018414837436 -0.9974375214017446
O 2.1030072591930242 -0.2288735350813182 0.1397965832045281 -0.4871145088925188
N 1.3568015118234236 -0.1905216671221967 0.2619069779895015 0.4662300369825688
N 2.3283070484115211 -0.2722388363358886 0.0714947303918758 0.6223673236702755
N 2.1179992852374965 0.8344411926467452 -0.4166101508885414 0.9509229066582735
O 2.1161504712287869 0.7415587937216251 -0.4021833310312094 -0.9922381659518612
O 1.7842579274387897 0.0580526342942167 0.8532240770844567 -0.6086911331096487
N 1.8500859606186764 0.0750496431613118 1.1797135453178820 0.3897866237988844
