25
s                      x[A]                      y[A]                      z[A]                      q[e]
N 1.8905452534425209 1.2760818831072993 0.3499187000485081 0.1158659338886357
O 1.8303992005090728 -0.2336166202167610 -0.4100200078515583 -0.2341991647481463
N 3.2842580688629734 -0.6621663299654816 0.0726540422548476 0.0569852111266852
N 2.0648694701971104 -0.5597516953233329 0.0577122233786852 0.3189271149812888
O 1.8244746821877826 -0.4037865851368678 0.3753009451949418 -0.2877498234141676
N 1.3101690284307987 -0.9072829057275202 -0.0342448443095067 0.5692545008206258
O 0.7963710804182397 -0.5297555455401273 -0.6053651378171742 -0.2058946535748549
O 1.0635675808654301 -0.7494649063214587 0.0193069755024182 -0.9992971180892700
N 0.6634496051509857 -0.4098230453873711 -0.1382514343613881 0.6691943173322236
N 0.7844748659655197 -2.1691696507438776 -0.3647393644463874 0.0628076875181509
N -0.5557121490301367 1.5958755671437881 -0.0503241252953085 0.7576134719858190
O -0.5281337731302376 1.2540313286398468 -0.1333996702967996 -0.9235083265987739
N -0.6067847902603175 0.8254798573622366 -0.0585065614570030 0.9955526175656415
O -0.5497598125667842 1.3985556625502580 -0.0148331253377155 -0.9936641819349231
O -0.4702041027534567 -0.2020265161541637 0.0574699070657835 -0.9934394819660318
N -0.4860488820331885 0.1993735581994865 -0.1071292632556486 0.8475065253219278
N -0.4427415078966583 -0.4759222471100352 -0.0387270956696059 0.9207393412409772
O -0.6921340498395016 -0.3014783609179375 -0.2806499214235063 -0.6738758902636315
N -2.8349740248173219 -0.0596021003075703 0.1843467098962812 0.1207489421105395
N -1.1524028421622763 -0.7122211787021768 -0.0398856155819138 0.4308753055723465
O -1.3820388418980925 -0.4448623088070075 0.2618243808804669 -0.7095764258838037
N -1.5329145445954842 -0.2543213273762472 0.0776656934571652 0.9977500474782615
O -1.5120514238100029 -0.4395534231399406 -0.0474380170856700 -0.9963537733476465
O -1.7498797009084697 -1.8909885776415609 0.4934316748728145 -0.1586318904925156
N -1.7771491677050615 -1.8341481302043006 0.3266294883284938 0.3123697133706422
