25
s                      x[A]                      y[A]                      z[A]                      q[e]
N 0.0816106360071757 -0.0107560576453206 0.2414553956593453 0.1158659338886357
O -0.1698669459878356 0.4578978164147479 0.2922710095364611 -0.2341991647481463
N -0.0798799869006215 -0.0070289923088681 -0.3904218450190156 0.0569852111266852
N -0.5167601359141544 -0.0369764739251389 0.1702940188484262 0.3189271149812888
O -0.2265903295294787 -0.3422686514045948 0.2449635290580277 -0.2877498234141676
N -0.0010084182579674 0.1168794650165159 -0.5472004900106016 0.5692545008206258
O -0.1492895740651509 -0.4804038601160641 0.0477440091481992 -0.2058946535748549
O -0.0414299152855576 0.1571992267471969 -0.2550926132337756 -0.9992971180892700
N -0.1901698429249642 -0.0209400356518227 0.2413129445767340 0.6691943173322236
N 0.0218982813326365 -0.0352275866599567 0.4184487007772032 0.0628076875181509
N 0.0588543114227343 0.0089954320837324 0.2642189399537913 0.7576134719858190
O 0.0214442402685463 -0.0743610543526165 -0.0766208745311596 -0.9235083265987739
N 0.0977666674129631 -0.0065713493511624 -0.5067729020657176 0.9955526175656415
O 0.0519603663288587 0.0436187032642431 0.0667755588290595 -0.9936641819349231
O -0.0474530950848008 0.1110209221659505 -0.1231589919624719 -0.9934394819660318
N -0.0349600473896025 -0.0518741864725300 0.2790537265497431 0.8475065253219278
N -0.0844710121796752 0.0149535526359019 -0.3959733303190297 0.9207393412409772
O 0.1533430987201899 -0.2397778473841832 -0.2236064961310674 -0.6738758902636315
N -0.0666099585164590 0.0192424005374622 0.2139449416592269 0.1207489421105395
N 0.2692374721438763 0.0782564985865574 -0.4903841747055595 0.4308753055723465
O 0.3553614380313797 -0.2030358090763363 -0.1316367986857317 -0.7095764258838037
N 0.4525025532680948 -0.0079871920780822 0.0816784754043767 0.9977500474782615
O 0.3148331086547472 0.1180373677967536 -0.0430695579657389 -0.9963537733476465
O -0.0246190581117692 -0.3644735884168928 -0.1366080102486377 -0.1586318904925156
N -0.0374440124389572 -0.1969420460048522 -0.0768909057998036 0.3123697133706422
