25
s                      x[A]                      y[A]                      z[A]                      q[e]
N 1.7158818930080180 0.8845065016307961 -1.2679295579187100 0.1158659338886357
O 1.7339815057337440 -0.5447751344222842 -0.3589344355286788 -0.2341991647481463
N 3.3300351546173586 -0.4210314593155939 -0.0807408826896414 0.0569852111266852
N 2.1357617925310111 -0.3407203960388767 0.0526454078793462 0.3189271149812888
O 1.9014564233630820 -0.0063166945547597 0.1823885883432979 -0.2877498234141676
N 1.3729155535377080 -0.6615605384248933 0.6060206501007701 0.5692545008206258
O 0.9843881042304254 -0.2936678487606773 -0.0954240884041600 -0.2058946535748549
O 1.1240749505011092 -0.4797016047322396 0.5991640616892817 -0.9992971180892700
N 0.7032512415582002 -0.2340665509627321 0.3415848401289650 0.6691943173322236
N 1.0629297102270896 -1.4711138887401842 1.4525039212326578 0.0628076875181509
N -0.8042231474757437 1.5928279251818553 0.1094049550688458 0.7576134719858190
O -0.7172699436457600 1.2534487617733432 0.0395547852411541 -0.9235083265987739
N -0.7412606963376073 0.8251555795529261 0.0806602585405342 0.9955526175656415
O -0.7957461718947975 1.3953325972333916 0.1563737400400894 -0.9936641819349231
O -0.4773542398619738 -0.2077307563589376 0.2277108436257110 -0.9934394819660318
N -0.5146851775995490 0.2086824424725865 0.0637881513268970 0.8475065253219278
N -0.3828436228307480 -0.4785959080527136 0.1429131332994686 0.9207393412409772
O -0.5792657091918954 -0.3249081814445978 -0.1757569598354444 -0.6738758902636315
N -2.7263642059020903 -0.3996924463361320 -0.5319821410498965 0.1207489421105395
N -0.9884419708572267 -0.8031175812765680 -0.1604734023634624 0.4308753055723465
O -1.3540152228008893 -0.5994771797456668 0.0540587883012902 -0.7095764258838037
N -1.4700404282674473 -0.4058767568172591 -0.1721993375765368 0.9977500474782615
O -1.3654818530717361 -0.5806893561391359 -0.2951628778603367 -0.9963537733476465
O -1.5357875416600300 -2.0990062554411004 0.0580657239374261 -0.1586318904925156
N -1.4949406744260774 -2.0405220474766974 -0.0983312866350396 0.3123697133706422
