25
s                      x[A]                      y[A]                      z[A]                      q[e]
N 0.0646945910432818 -0.0056819207703592 0.2428677246485938 0.1158659338886357
O -0.1739848386943975 0.4426468882591706 0.3087748720079674 -0.2341991647481463
N -0.0844725993159362 -0.0042256533405632 -0.3914463368234601 0.0569852111266852
N -0.5110364485225990 -0.0370141571790631 0.1391128656049200 0.3189271149812888
O -0.2353420710375225 -0.3358489780526746 0.2741998543220131 -0.2877498234141676
N 0.0383328047857811 0.1210897941094635 -0.5534143287292907 0.5692545008206258
O -0.1586707670254695 -0.4983738455397507 0.0430567292408355 -0.2058946535748549
O -0.0743945801320619 0.1589693077660865 -0.2689868170100235 -0.9992971180892700
N -0.1839616155508715 -0.0154142064852506 0.2422486314237884 0.6691943173322236
N 0.0179310224161445 -0.0257689742048649 0.3818170983081697 0.0628076875181509
N 0.0574004205441379 0.0021411632388360 0.2902074210904345 0.7576134719858190
O 0.0331300028132539 -0.0720893101943840 -0.0583881986097649 -0.9235083265987739
N 0.1052315971072546 -0.0119446907999584 -0.4789642927289407 0.9955526175656415
O 0.0658964068055186 0.0532759100715641 0.0937503358989216 -0.9936641819349231
O -0.0426180361696608 0.1140746941466940 -0.1211674901452795 -0.9934394819660318
N -0.0282007357006938 -0.0532303280172243 0.2953242518255297 0.8475065253219278
N -0.0802879837419133 0.0212719066152151 -0.4030530280619657 0.9207393412409772
O 0.1556296780905735 -0.2556038412829562 -0.2257542445343513 -0.6738758902636315
N -0.0654020408529946 0.0235102687872629 0.2194981256077066 0.1207489421105395
N 0.2631080048726597 0.0742745068750862 -0.4898835426904319 0.4308753055723465
O 0.3508581615986386 -0.2102643442772265 -0.1259126253313152 -0.7095764258838037
N 0.4484716580677111 -0.0072318325643347 0.1007702281931604 0.9977500474782615
O 0.3065008777432438 0.1251886436079854 -0.0367837168324615 -0.9963537733476465
O -0.0339241300366350 -0.3681410758537457 -0.1389959113020481 -0.1586318904925156
N -0.0296199712554282 -0.2027005469143029 -0.0925222664968555 0.3123697133706422
