21
s                      x[A]                      y[A]                      z[A]                      q[e]
N       -1.8651953439375619        1.2776549515186251       -1.1188649098785517        0.0707249461841811
O       -1.6910603074863726        0.2448705981445830        0.0916562548881428       -0.3496602100029151
N       -1.4898705488455515        0.1476168340246350       -0.4069642423922310        0.9824851761690530
N       -3.1249771499038639       -0.3268752133924670        0.0875324014306087        0.1071394941056757
O       -1.5363424874203275       -0.0191183870428042       -0.4703287949567866       -0.8194842575378962
N       -0.6173381913004423       -0.2409560392694026        0.4008426715380933        0.3116552922920345
N       -0.9523600855140979       -1.4993419869823066        1.0925006006344566        0.0918298459672651
N       -1.4167277088590235       -0.5079748442574441        0.4690531544667016        0.5593901217632046
O       -1.0730298271912415       -0.4346746921441463        0.4155109938566757       -0.9963138680841535
N        1.2515610448990666       -0.5438827179183273       -0.0631931602700412        0.9989733053171830
O        1.2958632795343659       -0.6305293261917760       -0.0646786319434338       -0.8354521971080898
N        1.6196233612181477       -1.3148516063026183       -0.2692347206282719        0.2899344186932475
O        1.3785513763301818       -1.0143908207086190       -0.2103221661052661       -0.8678253524624289
N        0.2808162593167152        0.2990164556870720        0.1913629033819977        0.9219570073558310
O        0.5118666480218674        0.2400581655284907        0.3019294013775808       -0.9704818863270434
O        0.4635206967642176        0.3822725885382328       -0.3551666918907813       -0.3320651923316272
N        0.7982780825900111       -0.2096276934133912       -0.0181017144203652        0.9769593393400061
O        1.0209318611148210        0.9954980511945667        0.5825375771041310       -0.1970026432733326
O        0.8304305929167484        1.0916589809464852       -0.3993617885011295       -0.1946060569702309
N        2.2009299463907963        1.4686507572240810       -0.1481248706110637        0.1283355164991325
N        0.2098375862337379        2.1907474762266279        0.3784858376810052        0.1235072004109040

        RMSE         1.537885519E+00 kcal/mol

Coordinates in bohr
s                   x[bohr]                   y[bohr]                   z[bohr]                      q[e]
+       -3.5247083705211102        2.4144179412053006       -2.1143482510555174        0.0707249461841811
-       -3.1956408427817462        0.4627383666703037        0.1732052194237453       -0.3496602100029151
+       -2.8154472997036319        0.2789553878137248       -0.7690509609757511        0.9824851761690530
+       -5.9053509616320756       -0.6177046305123475        0.1654122658074835        0.1071394941056757
-       -2.9032665361290575       -0.0361285154714016       -0.8887926113849377       -0.8194842575378962
+       -1.1666001083433284       -0.4553409224942326        0.7574828686038458        0.3116552922920345
+       -1.7996997344392420       -2.8333457237963158        2.0645269270973019        0.0918298459672651
+       -2.6772273640909088       -0.9599333342686636        0.8863820002241322        0.5593901217632046
-       -2.0277324978387878       -0.8214161218201319        0.7852019805059072       -0.9963138680841535
+        2.3651076041510639       -1.0277893812352736       -0.1194177659125405        0.9989733053171830
-        2.4488266943575518       -1.1915277405719200       -0.1222249005423782       -0.8354521971080898
+        3.0606445790957548       -2.4847094315302485       -0.5087798854515850        0.2899344186932475
-        2.6050845511369909       -1.9169208353176850       -0.3974512920520022       -0.8678253524624289
+        0.5306658216841369        0.5650592082536628        0.3616234779644232        0.9219570073558310
-        0.9672877775174493        0.4536441870286687        0.5705638778270573       -0.9704818863270434
-        0.8759271703657577        0.7223904976070893       -0.6711677765584404       -0.3320651923316272
+        1.5085269480507257       -0.3961389288627493       -0.0342072826557408        0.9769593393400061
-        1.9292816102609605        1.8812186751847271        1.1008364785145803       -0.1970026432733326
-        1.5692863868142140        2.0629364963852423       -0.7546844052401480       -0.1946060569702309
+        4.1591548199971848        2.7753477050997679       -0.2799154378237875        0.1283355164991325
+        0.3965355688089043        4.1399127401062614        0.7152345755815864        0.1235072004109040
