21
s                      x[A]                      y[A]                      z[A]                      q[e]
N        1.7473688291938310        0.6696507366007958       -1.6607541149959704        0.0707249461841811
O        1.6227995556352297       -0.1453716996435314       -0.3213404001913706       -0.3496602100029151
N        1.4952208479190698        0.3807037673833690       -0.3073284799344279        0.9824851761690530
N        3.1381167918780135       -0.0919761576424577        0.1008098771655620        0.1071394941056757
O        1.5736534767575108        0.4728824123655621       -0.1608516115566640       -0.8194842575378962
N        0.6860878183488839        0.0082088027836068        0.2802183926092626        0.3116552922920345
N        1.0715335579871055       -0.6886171983614998        1.6735184063047148        0.0918298459672651
N        1.4615476420115383       -0.1068029476304535        0.5971905102466611        0.5593901217632046
O        1.1271975906297433       -0.1008330353419884        0.4754175824880015       -0.9963138680841535
N       -1.0752287485629439       -0.6741661056024140       -0.2352985126193932        0.9989733053171830
O       -1.0934412966458988       -0.7661191696742351       -0.2638617211383216       -0.8354521971080898
N       -1.3148865943063366       -1.5188331676230566       -0.2670535072495342        0.2899344186932475
O       -1.1468751929702001       -1.1753925688715166       -0.1925132612787311       -0.8678253524624289
N       -0.3116191172549763        0.3546124021563484        0.0488013845517213        0.9219570073558310
O       -0.4434244780727073        0.2729420840861947       -0.1681819403202184       -0.9704818863270434
O       -0.7395620384576350        0.3256167139184556        0.4363542324375309       -0.3320651923316272
N       -0.7393646204407587       -0.2613543065972994       -0.0404540681687423        0.9769593393400061
O       -0.9829975057671070        1.0126885013384832       -0.4721593251984829       -0.1970026432733326
O       -1.2492170118012547        0.8753147450206630        0.4870142799667050       -0.1946060569702309
N       -2.4377299396507195        1.1013372186562200       -0.2997563616214756        0.1283355164991325
N       -0.6554152756839052        2.2182181954702958        0.2834576401813745        0.1235072004109040

        RMSE         1.533635044E+00 kcal/mol

Coordinates in bohr
s                   x[bohr]                   y[bohr]                   z[bohr]                      q[e]
+        3.3020485273382398        1.2654564918866025       -3.1383704390694795        0.0707249461841811
-        3.0666467166652480       -0.2747126987185897       -0.6072453494067067       -0.3496602100029151
+        2.8255578996418724        0.7194258552845721       -0.5807666576293302        0.9824851761690530
+        5.9301812863497885       -0.1738097480161799        0.1905030585839570        0.1071394941056757
-        2.9737740874462113        0.8936182489167246       -0.3039654926806223       -0.8194842575378962
+        1.2965180746922507        0.0155123890789126        0.5295360173475223        0.3116552922920345
+        2.0249049588330137       -1.3012979101833018        3.1624914538285682        0.0918298459672651
+        2.7619247627104890       -0.2018283204131722        1.1285265090886063        0.5593901217632046
-        2.1300947355661441       -0.1905468211949679        0.8984090261295784       -0.9963138680841535
+       -2.0318878570027215       -1.2739893026550428       -0.4446497465782358        0.9989733053171830
-       -2.0663045849262383       -1.4477554101474608       -0.4986263879433543       -0.8354521971080898
+       -2.4847755492749526       -2.8701787170691588       -0.5046579895445864        0.2899344186932475
-       -2.1672800147952751       -2.2211700450654943       -0.3637973393355071       -0.8678253524624289
+       -0.5888747870688349        0.6701203207662094        0.0922212513459018        0.9219570073558310
-       -0.8379508208814969        0.5157857870345895       -0.3178178064533060       -0.9704818863270434
-       -1.3975697054702398        0.6153264111774333        0.8245899929912998       -0.3320651923316272
+       -1.3971966394861126       -0.4938880611778319       -0.0764471094995242        0.9769593393400061
-       -1.8575960679079841        1.9137039179300663       -0.8922518122061118       -0.1970026432733326
-       -2.3606780235671909        1.6541051416640042        0.9203236083241155       -0.1946060569702309
+       -4.6066419537686993        2.0812257150337197       -0.5664574278282867        0.1283355164991325
+       -1.2385553694840206        4.1918248759461374        0.5356573081113680        0.1235072004109040
