25
s                      x[A]                      y[A]                      z[A]                      q[e]
N       -1.7264893623098871        0.6167309019604448       -1.5367267860964293        0.1158659338886357
O       -1.8693258198919358        0.4104201295710714        0.1575021254956198       -0.2341991647481463
N       -3.3794314094488631       -0.0790438234413735        0.0490089052910489        0.0569852111266852
N       -2.1708468335185200       -0.1103005474291583        0.1055275476715789        0.3189271149812888
O       -1.8721295378712672       -0.3208087991650850       -0.1226928518454959       -0.2877498234141676
N       -1.4225497120496429       -0.1611522830250480        0.7493527769980424        0.5692545008206258
O       -1.0087962682543479       -0.2561593356203543       -0.0175243573016977       -0.2058946535748549
O       -1.1308899371776036       -0.2397171264004561        0.7134409823221739       -0.9992971180892700
N       -0.6776869806852307       -0.2751849306218378        0.3830856801097414        0.6691943173322236
N       -1.1119804589660900       -0.7317950114782855        1.8065119943128054        0.0628076875181509
N        1.3041241354809796       -1.4079417859175223       -0.2360057631531303        0.7576134719858190
O        1.1017104597954970       -1.1063804387805862       -0.2453293351159321       -0.9235083265987739
N        0.9927245637024056       -0.7082938667936129       -0.1261277582518023        0.9955526175656415
O        1.2355429751123430       -1.2302089539935581       -0.1581827675626467       -0.9936641819349231
O        0.4188951360126565        0.1467177617492320        0.2160165577522338       -0.9934394819660318
N        0.5752749795983880       -0.2058134787457178       -0.0231895348401360        0.8475065253219278
N        0.2353764286050713        0.3792765077698371        0.1808812310796625        0.9207393412409772
O        0.4341986064554544        0.3487295266678539       -0.1687120324755088       -0.6738758902636315
N        2.4670225726271857        1.1947502093972646       -0.3413871146036793        0.1207489421105395
N        0.7040558187243744        0.9321331487976640        0.0391165011725616        0.4308753055723465
O        1.1226240022637473        0.8046781732391002        0.2150766738077805       -0.7095764258838037
N        1.2878376376439826        0.7196204359891490       -0.0489406370614921        0.9977500474782615
O        1.1276560026222489        0.8792694192814048       -0.1298639479394927       -0.9963537733476465
O        0.8237645021660767        2.2322135417086266        0.6047549060399495       -0.1586318904925156
N        0.7970202990459218        2.2072402659879700        0.4336205317010864        0.3123697133706422

        RMSE         1.227030779E+00 kcal/mol

Coordinates in bohr
s                   x[bohr]                   y[bohr]                   z[bohr]                      q[e]
+       -3.2625920532820194        1.1654524978118230       -2.9039927553772662        0.1158659338886357
-       -3.5325138388426658        0.7755816412642406        0.2976358813642102       -0.2341991647481463
+       -6.3861998236282878       -0.1493711782132394        0.0926134087085835        0.0569852111266852
+       -4.1023059756673481       -0.2084378261291807        0.1994181637904791        0.3189271149812888
-       -3.5378120979566243       -0.6062407690590146       -0.2318558875393603       -0.2877498234141676
+       -2.6882293556227208       -0.3045336794096073        1.4160715198775746        0.5692545008206258
-       -1.9063486633846047       -0.4840709888017036       -0.0331162358248758       -0.2058946535748549
-       -2.1370722593018794       -0.4529997164786183        1.3482080632665085       -0.9992971180892700
+       -1.2806427922835151       -0.5200241527283868        0.7239270179921586        0.6691943173322236
+       -2.1013385243068066       -1.3828921516702273        3.4138129116058318        0.0628076875181509
+        2.4644374496585115       -2.6606243759720942       -0.4459862563890828        0.7576134719858190
-        2.0819310385657070       -2.0907560198591693       -0.4636052539097755       -0.9235083265987739
+        1.8759775434121597       -1.3384814245814372       -0.2383469199138600        0.9955526175656415
-        2.3348378391956857       -2.3247580001337740       -0.2989221084603566       -0.9936641819349231
-        0.7915970823503273        0.2772563874462209        0.4082121327158659       -0.9934394819660318
+        1.0871121582692929       -0.3889311077571423       -0.0438218698246195        0.8475065253219278
+        0.4447969864519625        0.7167287255050702        0.3418159879762127        0.9207393412409772
-        0.8205164502562543        0.6590032972627859       -0.3188195354480585       -0.6738758902636315
+        4.6619970075877752        2.2577506840942219       -0.6451281493612384        0.1207489421105395
+        1.3304726744240511        1.7614763636882147        0.0739194742022914        0.4308753055723465
-        2.1214519061438311        1.5206213665556079        0.4064360094711342       -0.7095764258838037
+        2.4336604292037256        1.3598855383020476       -0.0924844004516513        0.9977500474782615
-        2.1309610086846047        1.6615783929322037       -0.2454072951763547       -0.9963537733476465
-        1.5566893009679967        4.2182722473675387        1.1428211454424868       -0.1586318904925156
+        1.5061500816272893        4.1710795957999522        0.8194240472904574        0.3123697133706422
