21
s                      x[A]                      y[A]                      z[A]                      q[e]
N        1.7800334427265039        0.9055632649085197       -1.5214769309344023        0.0707249461841811
O        1.6241304012489648       -0.1295838539530159       -0.3504880489363417       -0.3496602100029151
N        1.5075641734107745        0.3877674390960547       -0.2400118566353071        0.9824851761690530
N        3.1355020664792108       -0.1836556109670658        0.0893316592563593        0.1071394941056757
O        1.5869318471179106        0.4495317170207348       -0.0791427746083835       -0.8194842575378962
N        0.6850946448222558       -0.0844148923708730        0.2463829280489211        0.3116552922920345
N        1.0395547100216400       -1.0179558333031913        1.5072475949133093        0.0918298459672651
N        1.4571872777628352       -0.2639050750611697        0.5408167969136924        0.5593901217632046
O        1.1215809408653188       -0.2302064306240222        0.4278245071961880       -0.9963138680841535
N       -1.1281827686520465       -0.6231136301785198       -0.2462979545345201        0.9989733053171830
O       -1.1536489114553343       -0.7123783736481653       -0.2769132393720767       -0.8354521971080898
N       -1.4296312901246213       -1.4466772440091282       -0.2985114387106614        0.2899344186932475
O       -1.2352966007984996       -1.1188617614174097       -0.2171261174482071       -0.8678253524624289
N       -0.2855534854275159        0.3372195997230626        0.0510288788463484        0.9219570073558310
O       -0.4276485540150213        0.2728388290208403       -0.1646769352376823       -0.9704818863270434
O       -0.7057850922947091        0.3267902059953520        0.4481315326312603       -0.3320651923316272
N       -0.7590762575728208       -0.2428088280876778       -0.0469830275744152        0.9769593393400061
O       -0.9140910847848358        1.0626048899626750       -0.4374980456333841       -0.1970026432733326
O       -1.1760622649333581        0.9096677443838198        0.5204731637873713       -0.1946060569702309
N       -2.3561107829008430        1.2475872297205768       -0.2382695502246501        0.1283355164991325
N       -0.4903047009109615        2.2131072147393236        0.3545999825600765        0.1235072004109040

        RMSE         1.538303360E+00 kcal/mol

Coordinates in bohr
s                   x[bohr]                   y[bohr]                   z[bohr]                      q[e]
+        3.3637757009089149        1.7112665599525176       -2.8751747056681358        0.0707249461841811
-        3.0691616503904742       -0.2448779942525259       -0.6623264227357467       -0.3496602100029151
+        2.8488834042985762        0.7327742602616918       -0.4535566759033786        0.9824851761690530
+        5.9252401714527725       -0.3470588061313835        0.1688123703272388        0.1071394941056757
-        2.9988665708197635        0.8494918298759980       -0.1495581688186826       -0.8194842575378962
+        1.2946412487318684       -0.1595210274909493        0.4655962560008426        0.3116552922920345
+        1.9644736943706300       -1.9236577327552344        2.8482851576411581        0.0918298459672651
+        2.7536848684732025       -0.4987083149840015        1.0219956302142252        0.5593901217632046
-        2.1194808057687644       -0.4350271061986098        0.8084711483597570       -0.9963138680841535
+       -2.1319564522131169       -1.1775141060772163       -0.4654356793307069        0.9989733053171830
-       -2.1800804875831301       -1.3462000238940963       -0.5232901829265707       -0.8354521971080898
+       -2.7016115987204770       -2.7338237831093788       -0.5641048644795401        0.2899344186932475
-       -2.3343722592181742       -2.1143423013262423       -0.4103088966611018       -0.8678253524624289
+       -0.5396178816279180        0.6372526876131028        0.0964306055087668        0.9219570073558310
-       -0.8081386450364489        0.5155906632400035       -0.3111943067789751       -0.9704818863270434
-       -1.3337405278679764        0.6175439898131621        0.8468458648547499       -0.3320651923316272
+       -1.4344462351501150       -0.4588421859290832       -0.0887850546604778        0.9769593393400061
-       -1.7273818039659909        2.0080322216017077       -0.8267514866701471       -0.1970026432733326
-       -2.2224355872096724        1.7190229020483978        0.9835517352086867       -0.1946060569702309
+       -4.4524041009206199        2.3575981817905309       -0.4502641939606074        0.1283355164991325
+       -0.9265416027462305        4.1821665221321078        0.6700968511306669        0.1235072004109040
