30
s                      x[A]                      y[A]                      z[A]                      q[e]
N        1.6425440422956015        1.7261263476363431        0.3425755009507631        0.2137068255539760
N        1.4718120233487970        1.0084091211314608       -0.0667412924766988        0.4524136045707061
O        1.4116041034350137        1.2808756835360957       -0.5497647779041197       -0.5303393512711568
N        1.1561612802229686        1.6910222235737464       -0.9876732895446927        0.2065219334641430
N        3.1211674872944029        1.5784738344444729       -0.0148033849090837        0.0640972179527254
N        1.2027221327071944        1.7249440794557318        0.9893270397489012        0.2729192555687945
O        1.4730905380382959        1.5600705095289169        0.5903490823412255       -0.5760168259183410
O        2.8056373014252416       -0.8019013888964995        0.0159414404096549       -0.7855321009151053
O        2.4661366180285085       -1.2406095077772725        0.0020264953300249       -0.7445427033607991
N        2.6392245912997159       -1.0523462960751155        0.0331886322026527        0.9977538426035523
N        1.7865354665178308        0.0964518057217885        0.0269918923704192        0.2084365764815679
N        1.4299242246503561       -0.6093846551550683        0.0070018881610931        0.3300899125146088
N        0.0128024121032389       -0.7924344093121555       -0.3692440746200495        0.6266498413516267
O        0.0436233387646282       -0.3882365770372842       -0.1040694960538829       -0.5811225412727979
N        0.1280183025572094       -1.6505357516609522        0.9562698671645549        0.5003074335780895
O        0.1585650520588487       -1.5284878341316122        0.7366894439171464       -0.5967490130385100
N        0.1149363537840006       -1.4347415546285021       -0.7292850856911717        0.9708061175491041
O        0.0560018555455833       -1.2337280619859208       -1.0495949447373434       -0.1568654630532827
O        0.1442423145058614       -1.5100959499378823       -0.6742216288640771       -0.7813807259506527
N       -0.6738033518227184        0.1998445495257284       -0.3035871730115519        0.1400529194232831
N       -0.7944816852571553        0.1527790232217827        0.3669388312807463        0.1778327620465852
N       -1.1074144840988913        0.4696108680338059        0.7198042691387296        0.7120624373414439
O       -1.1111890847968751        0.5669309150680847        0.8509815409799008       -0.9970019554920370
N       -1.7690570856998507       -0.5801819684458132        0.0543495382350646        0.9931708722557875
N       -2.4029162565795099       -1.0311474440548740        0.0253195301459424        0.8506195801821621
O       -2.1273683140213508       -0.9470470975133681        0.0008214249067392       -0.8089940633040810
O       -2.2915511100593746       -0.8684837179491598        0.0091959497639466       -0.9883399134133223
N       -1.2024891186037296        1.0663406952202281       -1.4328281787639083        0.2529889584625400
N       -1.2085289440673459        0.5891518581463883       -0.7345512074176814        0.5419198115726583
O       -1.1660780891157991        0.7831209472023062       -1.1184841152063458       -0.9654652454832693

        RMSE         1.402230560E+00 kcal/mol

Coordinates in bohr
s                   x[bohr]                   y[bohr]                   z[bohr]                      q[e]
+        3.1039583889411060        3.2619060549694989        0.6473738740884600        0.2137068255539760
+        2.7813216322851688        1.9056170613520889       -0.1261227640400397        0.4524136045707061
-        2.6675451530646197        2.4205042426418135       -1.0389048636619356       -0.5303393512711568
+        2.1848281764801127        3.1955688746170972       -1.8664320186694798        0.2065219334641430
+        5.8981517426697971        2.9828832433013148       -0.0279743432079035        0.0640972179527254
+        2.2728154358431425        3.2596718919013004        1.8695571536353539        0.2729192555687945
-        2.7837376748956966        2.9481059994130998        1.1155980840402684       -0.5760168259183410
-        5.3018861070622787       -1.5153740046386330        0.0301249564195541       -0.7855321009151053
-        4.6603227960366853       -2.3444121983380883        0.0038295211682663       -0.7445427033607991
+        4.9874116611298325       -1.9886462887219247        0.0627174253415638        0.9977538426035523
+        3.3760627451357337        0.1822674971200466        0.0510072841879270        0.2084365764815679
+        2.7021651647468063       -1.1515701032996419        0.0132316509855515        0.3300899125146088
+        0.0241930526203680       -1.4974840059889223       -0.6977701744800073        0.6266498413516267
-        0.0824361629432152       -0.7336608024856767       -0.1966628455562529       -0.5811225412727979
+        0.2419195308791234       -3.1190605309158754        1.8070881509689463        0.5003074335780895
-        0.2996445214601869       -2.8884233926029590        1.3921412885192310       -0.5967490130385100
+        0.2171982305104897       -2.7112685990614600       -1.3781490793373581        0.9708061175491041
-        0.1058281694986041       -2.3314081504452493       -1.9834469882186230       -0.1568654630532827
-        0.2725784701182311       -2.8536677685456726       -1.2740942264131783       -0.7813807259506527
+       -1.2733037973604435        0.3776514662691198       -0.5736966121938152        0.1400529194232831
+       -1.5013527968282099        0.2887105116041311        0.6934138959161884        0.1778327620465852
+       -2.0927100823120774        0.8874359261224115        1.3602329326075353        0.7120624373414439
-       -2.0998430438642286        1.0713441615338728        1.6081220502720799       -0.9970019554920370
+       -3.3430333922732958       -1.0963850232916024        0.1027057423093708        0.9931708722557875
+       -4.5408536273456255       -1.9485862642295597        0.0478469776011044        0.8506195801821621
-       -4.0201434814773194       -1.7896596422100191        0.0015522681063669       -0.8089940633040810
-       -4.3304040005010869       -1.6411963713432749        0.0173778265173277       -0.9883399134133223
+       -2.2723751030042250        2.0150918703965286       -2.7076528427023168        0.2529889584625400
+       -2.2837887189760258        1.1133356582012544       -1.3881006071437847        0.5419198115726583
-       -2.2035682293260672        1.4798841133214784       -2.1136286534150148       -0.9654652454832693
