30
s                      x[A]                      y[A]                      z[A]                      q[e]
N 1.6432559521731971 1.7264217639668937 0.3445973969518742 0.2137068255539760
N 1.4714770415658442 1.0075607765635555 -0.0665221030424733 0.4524136045707061
O 1.4135843881301187 1.2846710113072293 -0.5515769584780059 -0.5303393512711568
N 1.1549123453761974 1.6885965189043872 -0.9867170019177438 0.2065219334641430
N 3.1211762816408695 1.5786659413330575 -0.0136453494656379 0.0640972179527254
N 1.2043783333342857 1.7263859049826029 0.9916146691394324 0.2729192555687945
O 1.4717626598654507 1.5603734706832779 0.5889260741192218 -0.5760168259183410
O 2.8057849775107777 -0.8002854236344041 0.0169621427162704 -0.7855321009151053
O 2.4631474713318839 -1.2412564076382782 0.0054778198264777 -0.7445427033607991
N 2.6439638283737530 -1.0559105990227331 0.0309931668944985 0.9977538426035523
N 1.7865454324721077 0.0962936384987120 0.0258317955054012 0.2084365764815679
N 1.4306734349935981 -0.6081468876125988 0.0022127275449206 0.3300899125146088
N 0.0111207467128137 -0.7893818904808509 -0.3807017214977657 0.6266498413516267
O 0.0451664402547747 -0.3904631071492183 -0.0954785046407417 -0.5811225412727979
N 0.1252382402337491 -1.6445714229677604 0.9506723410273463 0.5003074335780895
O 0.1609091074830911 -1.5375508085414824 0.7455917722119839 -0.5967490130385100
N 0.1128495235392895 -1.4287400714548777 -0.7441799200292724 0.9708061175491041
O 0.0566273084072474 -1.2366867656097353 -1.0432987761089294 -0.1568654630532827
O 0.1459572095325530 -1.5203247863840212 -0.6632883389449213 -0.7813807259506527
N -0.6742412051236131 0.1994728973359408 -0.3059100487815243 0.1400529194232831
N -0.7957220479545660 0.1533314642145601 0.3650308139856168 0.1778327620465852
N -1.1116534544298278 0.4713301947054136 0.7181760071617708 0.7120624373414439
O -1.1086498242983780 0.5669665776295305 0.8539719386029168 -0.9970019554920370
N -1.7721587254574920 -0.5800268802106369 0.0514980817566114 0.9931708722557875
N -2.4058897014947918 -1.0322963673053429 0.0254991613091737 0.8506195801821621
O -2.1268612387594246 -0.9486484254021025 0.0023026874266464 -0.8089940633040810
O -2.2920008033534383 -0.8696011763969830 0.0097751438734974 -0.9883399134133223
N -1.2030672077425113 1.0644184591560153 -1.4362116340978082 0.2529889584625400
N -1.2091002263983974 0.5876357027705017 -0.7398229304578113 0.5419198115726583
O -1.1676964145098854 0.7880540211412954 -1.1137834108362916 -0.9654652454832693
