21
s                      x[A]                      y[A]                      z[A]                      q[e]
N       -1.9951415216328827        1.4016599145554955       -0.1535614844828768        0.0707249461841811
O       -1.6401547817934214       -0.0893083121677034        0.2611578698516207       -0.3496602100029151
N       -1.4864788600261207        0.1053006435206839       -0.2247339472457254        0.9824851761690530
N       -3.0324257854230812       -0.7260508376609596       -0.0123492814206899        0.1071394941056757
O       -1.5293480409503213       -0.0152533135324369       -0.3650366406525642       -0.8194842575378962
N       -0.4669637223694038       -0.6703317425007590       -0.0732440307491232        0.3116552922920345
N       -0.7132008001843984       -2.0184784079509868        0.1748988944882691        0.0918298459672651
N       -1.2175010208987664       -1.0442808477684096        0.0338273046047406        0.5593901217632046
O       -0.9246331559067552       -0.8456849122655392        0.0076283891069882       -0.9963138680841535
N        0.6995923979255002        0.8917560238204590       -0.0625523681973577        0.9989733053171830
O        0.6693786991139478        0.9878401244202138       -0.0799115756769768       -0.8354521971080898
N        0.4682657188429343        1.7365549150140165        0.0216589740081063        0.2899344186932475
O        0.4884568195259379        1.3496054242585369        0.0273227095155412       -0.8678253524624289
N        0.5386944524325623       -0.4022820890742376       -0.0538100683829668        0.9219570073558310
O        0.6454927330217665       -0.2233682894812453       -0.2205918551383459       -0.9704818863270434
O        0.8020951907803282       -0.2388434310002671        0.4356586518894045       -0.3320651923316272
N        0.5945367755918717        0.3484832740175805        0.0110665268655558        0.9769593393400061
O        1.5068733838194970       -0.5161470549456328       -0.5503834637638045       -0.1970026432733326
O        1.5598367925588041       -0.4845885684293915        0.4523539340855433       -0.1946060569702309
N        2.7726906138349294        0.0685297640568608       -0.0978424196544136        0.1283355164991325
N        1.7676370197918649       -1.8651609325156919       -0.0517461069336415        0.1235072004109040

        RMSE         1.496481410E+00 kcal/mol

Coordinates in bohr
s                   x[bohr]                   y[bohr]                   z[bohr]                      q[e]
+       -3.7702710574153433        2.6487533595425070       -0.2901891490913792        0.0707249461841811
-       -3.0994433409496120       -0.1687682507238523        0.4935168495275229       -0.3496602100029151
+       -2.8090379367321305        0.1989893770885580       -0.4246856113875086        0.9824851761690530
+       -5.7304542302259707       -1.3720372363384556       -0.0233367597313087        0.1071394941056757
-       -2.8900489479015707       -0.0288245850820455       -0.6898192765905117       -0.8194842575378962
+       -0.8824335458024984       -1.2667434065273540       -0.1384111584404547        0.3116552922920345
+       -1.3477541848058858       -3.8143713811775033        0.3305110102281742        0.0918298459672651
+       -2.3007434869639760       -1.9734048003432125        0.0639243412653981        0.5593901217632046
-       -1.7473034311815165       -1.5981128726137008        0.0144155661906335       -0.9963138680841535
+        1.3220380315315066        1.6851746557479148       -0.1182068443918042        0.9989733053171830
-        1.2649424155406019        1.8667472908923897       -0.1510109922832834       -0.8354521971080898
+        0.8848939625537831        3.2816131911941855        0.0409295290337305        0.2899344186932475
-        0.9230496130162043        2.5503846292809533        0.0516324379898134       -0.8678253524624289
+        1.0179849804010124       -0.7602029735273400       -0.1016862920359647        0.9219570073558310
-        1.2198044813844071       -0.4221048922315362       -0.4168581917181409       -0.9704818863270434
-        1.5157402371216671       -0.4513486714551889        0.8232755362571451       -0.3320651923316272
+        1.1235116773814180        0.6585379471961010        0.0209127049359217        0.9769593393400061
-        2.8475780011607448       -0.9753765743088795       -1.0400740104944333       -0.1970026432733326
-        2.9476643383487149       -0.9157396778592297        0.8548250471950796       -0.1946060569702309
+        5.2396258907755682        0.1295024855097108       -0.1848953765989539        0.1283355164991325
+        3.3403498566271033       -3.5246433423581882       -0.0977859701632368        0.1235072004109040
