21
s                      x[A]                      y[A]                      z[A]                      q[e]
N 0.0230754375910871 0.5066750305585871 0.2822427838599298 0.0707249461841811
O 0.1145547786933277 0.1965648948094633 0.2629836183308753 -0.3496602100029151
N 0.3188305999399125 -0.2963506275286191 0.3846299125647881 0.9824851761690530
N 0.0930505539083553 0.0824966529504948 -0.2072940575451987 0.1071394941056757
O 0.1810283898424874 -0.4177853714295605 0.4295240418091883 -0.8194842575378962
N 0.1377768954732209 -0.0335620896896456 0.3005193538912151 0.3116552922920345
N 0.0186387285082076 0.5120057392992150 0.1968177477693150 0.0918298459672651
N 0.1611724575382016 -0.1785507835665927 -0.5320435432189549 0.5593901217632046
O 0.1042302406094158 -0.1368876682151912 -0.1844552284271856 -0.9963138680841535
N 0.1949567819024377 0.0169015332699875 -0.4172178744946345 0.9989733053171830
O 0.1650382610736859 0.0302057333186169 -0.3207562442234149 -0.8354521971080898
N -0.0169633852858306 -0.0779501565287213 0.4315018720505103 0.2899344186932475
O -0.0038205242356574 -0.0857385311042743 0.0444000433092568 -0.8678253524624289
N 0.0114105273618112 -0.0024511751148895 -0.3465300145264145 0.9219570073558310
O 0.1124391061260500 0.1690725371808173 -0.1698211558956557 -0.9704818863270434
O 0.3013463521914805 -0.4785884338666132 -0.1874516632645220 -0.3320651923316272
N 0.0838930187610406 -0.0629137882298045 0.4031564600421699 0.9769593393400061
O 0.2730786831364092 -0.6191597603789800 -0.1334393496612329 -0.1970026432733326
O 0.2065384232321524 0.3716162609148291 0.0197957407019585 -0.1946060569702309
N 0.0945286953684876 -0.3067930729263450 0.2065854572833717 0.1283355164991325
N -0.0150121574154940 -0.1662151109089584 -0.1089350493142282 0.1235072004109040
