25
s                      x[A]                      y[A]                      z[A]                      q[e]
N        1.9068150465795044        1.2769144509059509        0.3586828535090526        0.1158659338886357
O        1.8165601099312216       -0.2472313233483661       -0.3943627603262234       -0.2341991647481463
N        3.2871622553749331       -0.6585143070849316        0.0731605653985061        0.0569852111266852
N        2.0892966710862031       -0.5375611611389761        0.0579625170812393        0.3189271149812888
O        1.8054843689949658       -0.4296573611258058        0.3670849202640534       -0.2877498234141676
N        1.2984290563714804       -0.9453361581620663       -0.0371612327046622        0.5692545008206258
O        0.8039316027207081       -0.5213450010887494       -0.6214723058362773       -0.2058946535748549
O        1.0937000305088416       -0.7288118933807145        0.0286460050652764       -0.9992971180892700
N        0.6594168637406603       -0.4138360495538967       -0.1356503246132103        0.6691943173322236
N        0.7902870882784275       -2.1285638687991852       -0.3730396307315878        0.0628076875181509
N       -0.5548493882402009        1.6266629167942546       -0.0534561833482147        0.7576134719858190
O       -0.5417560854145542        1.2730150903272131       -0.1347673854404134       -0.9235083265987739
N       -0.6157223301188618        0.8565779442861824       -0.0602646183511318        0.9955526175656415
O       -0.5654844864516725        1.4272698472251304       -0.0075580403291968       -0.9936641819349231
O       -0.4744381190184454       -0.2027981961090742        0.0623478193849298       -0.9934394819660318
N       -0.4939773867433458        0.2173222467522415       -0.1067977412291216        0.8475065253219278
N       -0.4483750752663965       -0.4831509143217784       -0.0339738360679529        0.9207393412409772
O       -0.6956060437624243       -0.3039228846249054       -0.2968202180903925       -0.6738758902636315
N       -2.8394816989485432       -0.0546062946707497        0.1813768808534699        0.1207489421105395
N       -1.1567057297442700       -0.7177015681849415       -0.0371370173857396        0.4308753055723465
O       -1.3886903402621691       -0.4470690613102226        0.2710170343563228       -0.7095764258838037
N       -1.5531196971908845       -0.2464161784633351        0.0795952483017482        0.9977500474782615
O       -1.5242874173991150       -0.4437645600674276       -0.0538603370713095       -0.9963537733476465
O       -1.7583267296001575       -1.8940763152747775        0.5012955467385566       -0.1586318904925156
N       -1.7708056833250352       -1.8512202673910232        0.3299344504847429        0.3123697133706422

        RMSE         3.964916215E-01 kcal/mol

Coordinates in bohr
s                   x[bohr]                   y[bohr]                   z[bohr]                      q[e]
+        3.6033582099373751        2.4130185978516128        0.6778123590298197        0.1158659338886357
-        3.4328010982015740       -0.4671994907629193       -0.7452376110961283       -0.2341991647481463
+        6.2118363926008886       -1.2444116900861544        0.1382534317868229        0.0569852111266852
+        3.9481985031836686       -1.0158433702357685        0.1095332828257136        0.3189271149812888
-        3.4118709811955283       -0.8119347403147039        0.6936899640845855       -0.2877498234141676
+        2.4536753098787418       -1.7864264354187902       -0.0702245522962180        0.5692545008206258
-        1.5192105527425057       -0.9851992689342495       -1.1744124525873307       -0.2058946535748549
-        2.0667935210665815       -1.3772548754659213        0.0541331041618500       -0.9992971180892700
+        1.2461172749781906       -0.7820367944982590       -0.2563419623484186        0.6691943173322236
+        1.4934261573317416       -4.0224027525754096       -0.7049427360246224        0.0628076875181509
+       -1.0485133846518011        3.0739474111795362       -0.1010175462403850        0.7576134719858190
-       -1.0237706282336458        2.4056498742933914       -0.2546734491263941       -0.9235083265987739
+       -1.1635465732533825        1.6186977198085588       -0.1138836237388791        0.9955526175656415
-       -1.0686108075888288        2.6971491183795320       -0.0142826262673470       -0.9936641819349231
-       -0.8965581084222267       -0.3832330493830375        0.1178203031570279       -0.9934394819660318
+       -0.9334819731142859        0.4106795273309033       -0.2018184817405557        0.8475065253219278
+       -0.8473060937350296       -0.9130229053327015       -0.0642012455996321        0.9207393412409772
-       -1.3145049139242144       -0.5743310152001890       -0.5609089206895049       -0.6738758902636315
+       -5.3658427492624421       -0.1031909416537642        0.3427526303028539        0.1207489421105395
+       -2.1858570369645092       -1.3562594036811366       -0.0701787919754136        0.4308753055723465
-       -2.6242444161643417       -0.8448380850418351        0.5121479702672450       -0.7095764258838037
+       -2.9349708677447657       -0.4656590901776429        0.1504132201781164        0.9977500474782615
-       -2.8804857553657488       -0.8385934827117176       -0.1017812860896183       -0.9963537733476465
-       -3.3227559580162400       -3.5792854965856451        0.9473112912475161       -0.1586318904925156
+       -3.3463377628885205       -3.4982993032658429        0.6234857507695909        0.3123697133706422
