21
s                      x[A]                      y[A]                      z[A]                      q[e]
N        1.8768831916132689        1.2379090701989288        1.0472710560760201        0.0690680479201058
O        1.8728751692932133       -0.1772287465148864       -0.2749484373014843       -0.3117950550350966
N        1.9294909980601234       -0.4309524979662098        0.0058539269911065        0.5776243102962968
N        3.2684611837431827       -0.6113278967750173        0.1216172432035956        0.0604184539076988
O        1.7287608608626575       -0.5289023622649419        0.2798888843348471       -0.3968494342195521
O        0.6484313484205293       -0.8744428087629292       -0.2042515713565833       -0.9828651838991298
N        0.4283025274211640       -0.8804449283829957       -0.1746467721625337        0.7759263489545838
N        1.0467549781710577       -1.2880100653328765       -0.6954308405472788        0.9970342621901004
O        0.9953752296589430       -1.4337147361644553       -0.4610686856976159       -0.3970377457969525
O        1.1451786742951240       -1.1717936273806271       -0.9233886906540445       -0.3893757401670396
N       -0.7038880436949968        1.7692302689660750       -0.2166904544697099        0.1691966627363242
O       -0.6552471049857453        1.3240088604340552       -0.1717678781445241       -0.6800109224217911
O       -0.7333711026049137       -0.4151401502380045       -0.4244191895464376       -0.9821368279659007
N       -0.6509092618436649       -0.5796555007655915       -0.3106014253026407        0.8921713087406896
O       -0.8213702106042305       -0.3397119261827949        0.2669297737769614       -0.3335771210350215
N       -0.6666562857994087        0.2473375353669475       -0.1769269860657637        0.9988617281482304
N       -2.8829111925213393       -0.1770719941071571        0.5221175227193204        0.0655379221577991
N       -1.6091323421089994       -0.4842556790500528        0.2276380892946040        0.9908754307264420
O       -1.5822939046073599       -0.5686275995310826       -0.1387450909878059       -0.6595771554465193
O       -1.4836294624770010       -0.5294976140099644        0.5754602929657471       -0.5578053818499882
N       -1.3785506960734317       -2.1696686145957806        0.2257082009954441        0.0943160920587207

        RMSE         1.389582146E+00 kcal/mol

Coordinates in bohr
s                   x[bohr]                   y[bohr]                   z[bohr]                      q[e]
+        3.5467952016242652        2.3393091108961244        1.9790554751026654        0.0690680479201058
-        3.5392211371346378       -0.3349137924713239       -0.5195772451224185       -0.3117950550350966
+        3.6462095478699146       -0.8143821942380582        0.0110623187716167        0.5776243102962968
+        6.1764964889643110       -1.1552422977569365        0.2298232817879931        0.0604184539076988
-        3.2668845634411294       -0.9994806117884213        0.5289133369528048       -0.3968494342195521
-        1.2253576596761218       -1.6524574209380309       -0.3859795305583493       -0.9828651838991298
+        0.8093744756673914       -1.6637997831921936       -0.3300345680824209        0.7759263489545838
+        1.9780802292028863       -2.4339862703121811       -1.3141738278312898        0.9970342621901004
-        1.8809865761200901       -2.7093281933838487       -0.8712935409932888       -0.3970377457969525
-        2.1640740591326568       -2.2143690313061666       -1.7449517326812445       -0.3893757401670396
+       -1.3301556255678368        3.3433606612159723       -0.4094856129487408        0.1691966627363242
-       -1.2382375729221713        2.5020141338998814       -0.3245942468441639       -0.6800109224217911
-       -1.3858705322483189       -0.7845011876312449       -0.8020360306315411       -0.9821368279659007
+       -1.2300402374084438       -1.0953901435620783       -0.5869516279988382        0.8921713087406896
-       -1.5521647456516130       -0.6419625020372287        0.5044241671688718       -0.3335771210350215
+       -1.2597977999758232        0.4674002023892702       -0.3343435478669868        0.9988617281482304
+       -5.4479125978823575       -0.3346175733512093        0.9866591232420210        0.0655379221577991
+       -3.0408194262025199       -0.9151106081022058        0.4301736444893151        0.9908754307264420
-       -2.9901021296892045       -1.0745504304902582       -0.2621902232186803       -0.6595771554465193
-       -2.8036533557417433       -1.0006054745622146        1.0874623497809879       -0.5578053818499882
+       -2.6050832656380383       -4.1000794645875382        0.4265266841511773        0.0943160920587207
