21
s                      x[A]                      y[A]                      z[A]                      q[e]
N 1.6449223694170858 -0.0230494846176693 0.2407297320625699 0.0690680479201058
O 0.2248655018984850 -0.2439270857075937 0.3692020885727662 -0.3117950550350966
N 0.0983649346932966 0.1204202821998524 0.3753139919717701 0.5776243102962968
N -0.7698314689343072 0.2926787157665909 0.3207349640701451 0.0604184539076988
O 0.2648855531630803 0.4219066359689381 0.2861242856717761 -0.3968494342195521
O 0.4174610677269827 0.1088904753212366 -0.0967888936523087 -0.9828651838991298
N 0.2387279177395385 0.1144550479916794 0.0047496192450292 0.7759263489545838
N 0.7603497449100393 0.0238701514347228 0.3683565608063816 0.9970342621901004
O 0.7567228292340713 0.3072458178962287 0.4011680497309528 -0.3970377457969525
O 0.6521212744462264 -0.2351305757606610 0.3766305420353636 -0.3893757401670396
N -1.0393577572442270 -0.0019375809176194 -0.5391496091607862 0.1691966627363242
O -0.0929049664490908 0.1001653310906462 -0.6983945460303329 -0.6800109224217911
O -0.8845551543161356 -0.2405312138683555 0.5256245788285058 -0.9821368279659007
N -0.7487611945861854 -0.1276056059881449 0.5214489845868395 0.8921713087406896
O -1.0454564931178700 0.4371092390723378 0.5778986939555245 -0.3335771210350215
N -0.4793082500522307 0.0446382855743363 0.2111106868604141 0.9988617281482304
N -0.2314146894951197 -0.4154633014807224 0.6315917160642087 0.0655379221577991
N 0.9215191742898495 -0.2043121590628333 -0.0527517812025055 0.9908754307264420
O 1.0902721100610606 -0.5487594474936123 -0.0503816222700830 -0.6595771554465193
O 0.9807992546493176 0.1379078433820988 0.1184492317852336 -0.5578053818499882
N -0.2761431012339473 0.0597397683744594 0.9383926364900165 0.0943160920587207
