21
s                      x[A]                      y[A]                      z[A]                      q[e]
N 1.8853031537969338 1.3441899952150327 0.7417709193058994 0.0707249461841811
O 1.6751463325407880 0.0314537273438885 -0.1436621622908453 -0.3496602100029151
N 1.4457447220222259 0.0833911436641971 0.3505598463041592 0.9824851761690530
N 3.0549777326210075 -0.6198573834930393 0.1007136332678253 0.1071394941056757
O 1.4749259687631786 -0.0711149077459915 0.4556073490351233 -0.8194842575378962
N 0.5349446334435277 -0.5977539829606335 -0.0892893871431080 0.3116552922920345
N 0.8511493478453257 -1.8597861024871762 -0.7199975783463588 0.0918298459672651
N 1.3037158378024964 -0.9052252655137438 -0.2602874608086842 0.5593901217632046
O 0.9982945143657634 -0.7325578491625138 -0.2083519670041674 -0.9963138680841535
N -0.7647401551719617 0.8727960102228844 0.0039817634120462 0.9989733053171830
O -0.7401332863662952 0.9709040884974958 0.0162723789101362 -0.8354521971080898
N -0.6065689356159855 1.7323716929624584 -0.0979971861878454 0.2899344186932475
O -0.5971766236401833 1.3452270304764355 -0.1053682320356356 -0.8678253524624289
N -0.5057407856269210 -0.4138076318266898 -0.0217818242271328 0.9219570073558310
O -0.6111384811305977 -0.2429972796386643 0.1531797910515633 -0.9704818863270434
O -0.8206513641405131 -0.2729417796776946 -0.4877789366679163 -0.3320651923316272
N -0.6243958269351497 0.3302399859214071 -0.0796579824509938 0.9769593393400061
O -1.3633479324786295 -0.5832994715178184 0.6454059210855406 -0.1970026432733326
O -1.5721962274054746 -0.5806741278918620 -0.3374634581676849 -0.1946060569702309
N -2.7251881126223383 -0.0988661798500843 0.3873858731102529 0.1283355164991325
N -1.5986407373604496 -1.9615270453156914 0.2127474524187267 0.1235072004109040
