21
s                      x[A]                      y[A]                      z[A]                      q[e]
N        1.8853031537969338        1.3441899952150327        0.7417709193058994        0.0707249461841811
O        1.6751463325407880        0.0314537273438885       -0.1436621622908453       -0.3496602100029151
N        1.4457447220222257        0.0833911436641971        0.3505598463041592        0.9824851761690530
N        3.0549777326210075       -0.6198573834930393        0.1007136332678253        0.1071394941056757
O        1.4749259687631784       -0.0711149077459915        0.4556073490351233       -0.8194842575378962
N        0.5349446334435277       -0.5977539829606335       -0.0892893871431080        0.3116552922920345
N        0.8511493478453257       -1.8597861024871762       -0.7199975783463588        0.0918298459672651
N        1.3037158378024962       -0.9052252655137438       -0.2602874608086842        0.5593901217632046
O        0.9982945143657634       -0.7325578491625138       -0.2083519670041674       -0.9963138680841535
N       -0.7647401551719617        0.8727960102228844        0.0039817634120462        0.9989733053171830
O       -0.7401332863662952        0.9709040884974958        0.0162723789101362       -0.8354521971080898
N       -0.6065689356159855        1.7323716929624582       -0.0979971861878454        0.2899344186932475
O       -0.5971766236401833        1.3452270304764355       -0.1053682320356356       -0.8678253524624289
N       -0.5057407856269210       -0.4138076318266898       -0.0217818242271328        0.9219570073558310
O       -0.6111384811305977       -0.2429972796386643        0.1531797910515633       -0.9704818863270434
O       -0.8206513641405131       -0.2729417796776946       -0.4877789366679163       -0.3320651923316272
N       -0.6243958269351497        0.3302399859214071       -0.0796579824509938        0.9769593393400061
O       -1.3633479324786295       -0.5832994715178184        0.6454059210855406       -0.1970026432733326
O       -1.5721962274054746       -0.5806741278918620       -0.3374634581676849       -0.1946060569702309
N       -2.7251881126223383       -0.0988661798500843        0.3873858731102529        0.1283355164991325
N       -1.5986407373604494       -1.9615270453156914        0.2127474524187267        0.1235072004109040

        RMSE         4.803874754E-01 kcal/mol

Coordinates in bohr
s                   x[bohr]                   y[bohr]                   z[bohr]                      q[e]
+        3.5627066241381038        2.5401509515368801        1.4017438853172286        0.0707249461841811
-        3.1655677885671940        0.0594389303047734       -0.2714821413207728       -0.3496602100029151
+        2.7320615719481656        0.1575864228140403        0.6624621000974505        0.9824851761690530
+        5.7730712340258377       -1.1713606916447283        0.1903211839759881        0.1071394941056757
-        2.7872061362879750       -0.1343876990771234        0.8609731104222559       -0.8194842575378962
+        1.0108988494916957       -1.1295913181971826       -0.1687324876104495        0.3116552922920345
+        1.6084391592897045       -3.5144863856334068       -1.3605982340674836        0.0918298459672651
+        2.4636658788685177       -1.7106278336658209       -0.4918720148192511        0.5593901217632046
-        1.8865032246982183       -1.3843337059715972       -0.3937281553383025       -0.9963138680841535
+       -1.4451494504151294        1.6493454227135425        0.0075244423451358        0.9989733053171830
-       -1.3986492075673482        1.8347428213475370        0.0307503395498334       -0.8354521971080898
+       -1.1462491645246751        3.2737080471947646       -0.1851878429605265        0.2899344186932475
-       -1.1285002672055513        2.5421106641633742       -0.1991171008710431       -0.8678253524624289
+       -0.9557115753087596       -0.7819830927767299       -0.0411616823021431        0.9219570073558310
-       -1.1548843540651064       -0.4591983077483655        0.2894678530423104       -0.9704818863270434
-       -1.5508063227089330       -0.5157852117858940       -0.9217686000694008       -0.3320651923316272
+       -1.1799371067861970        0.6240631290665083       -0.1505317705389042        0.9769593393400061
-       -2.5763542060937814       -1.1022762502929657        1.2196404306005195       -0.1970026432733326
-       -2.9710202852743621       -1.0973150698546918       -0.6377135132868191       -0.1946060569702309
+       -5.1498591732095429       -0.1868300029869166        0.7320532050497360        0.1283355164991325
+       -3.0209931666112078       -3.7067489033251633        0.4020344189602640        0.1235072004109040
