25
s                      x[A]                      y[A]                      z[A]                      q[e]
N        2.4289329671395938        0.1599633446707259       -0.1430127375786032        0.1158659338886357
O        1.1781482312907414        1.1214529922228307        0.4501372291087070       -0.2341991647481463
N        1.9112110669357238        2.4832752751542233        0.0175010183223493        0.0569852111266852
N        1.1875450806916301        1.5227002597629804       -0.0011704612388740        0.3189271149812888
O        1.1012256871594714        1.2452188075690587       -0.3192636920880239       -0.2877498234141676
N        0.3149390702806281        1.2273586411739690       -0.0024849147233095        0.5692545008206258
O        0.3817254492474672        0.5726191945645447        0.5598431471113139       -0.2058946535748549
O        0.3294954031517380        0.9326732655284378       -0.0764859852821227       -0.9992971180892700
N        0.2995710006167712        0.3917991316117293        0.0791785165648068        0.6691943173322236
N       -0.8901292811990293        1.6548249484947846        0.2606060252887567        0.0628076875181509
N        0.9994484978189618       -1.8780933797274069       -0.0970228318659454        0.7576134719858190
O        0.7575630012420845       -1.6314551811259277        0.0154870642413351       -0.9235083265987739
N        0.3907034127717249       -1.4090907602454674       -0.0074904670513093        0.9955526175656415
O        0.8388077375731188       -1.7524446865881287       -0.1245129356112189       -0.9936641819349231
O       -0.2920577213211689       -0.6288466389203262       -0.0403282915705561       -0.9934394819660318
N        0.0400426676542869       -0.9104916389287411        0.0874915478548104        0.8475065253219278
N       -0.4791681735764904       -0.4310222448194242        0.0815419888715419        0.9207393412409772
O       -0.4608759194987982       -0.7349467895872289        0.3460681518709900       -0.6738758902636315
N       -2.9067433582392077        0.0942538567044374       -0.1623859410613016        0.1207489421105395
N       -1.0965180841463480       -0.8316377339154287        0.2195462351951822        0.4308753055723465
O       -1.4958122667956435       -0.2440067254215613        0.2363799127000234       -0.7095764258838037
N       -1.6250696835212577       -0.0992489623268709       -0.0216379445609019        0.9977500474782615
O       -1.5798713597842031       -0.3227068107869268       -0.0972569752404013       -0.9963537733476465
O       -1.9333031610723790       -1.5929953251537081        0.7495267728830016       -0.1586318904925156
N       -1.9180749226974898       -1.5943530802101487        0.5751933330663368        0.3123697133706422

        RMSE         4.140293760E+00 kcal/mol

Coordinates in bohr
s                   x[bohr]                   y[bohr]                   z[bohr]                      q[e]
+        4.5900180849894907        0.3022869115398860       -0.2702549064755310        0.1158659338886357
-        2.2263774923320461        2.1192390178763376        0.8506360818879196       -0.2341991647481463
+        3.6116654844525673        4.6927101641624125        0.0330721315458596        0.0569852111266852
+        2.2441349641418982        2.8774864621155256       -0.0022118511819359        0.3189271149812888
-        2.0810149510505025        2.3531225125746942       -0.6033209398488625       -0.2877498234141676
+        0.5951485890367020        2.3193716895328693       -0.0046958082721728        0.5692545008206258
-        0.7213565541950651        1.0820934519072394        1.0579502212547800       -0.2058946535748549
-        0.6226560715540989        1.7624970363851549       -0.1445375646190102       -0.9992971180892700
+        0.5661071462950558        0.7403930549383749        0.1496257113275108        0.6691943173322236
+       -1.6821005577168033        3.1271659382299992        0.4924740144398870        0.0628076875181509
+        1.8886839373780733       -3.5490821257202700       -0.1833465801429793        0.7576134719858190
-        1.4315865951274083       -3.0830034782871985        0.0292663099034947       -0.9235083265987739
+        0.7383224464202623       -2.6627956227770926       -0.0141549312787402        0.9955526175656415
-        1.5851168959280963       -3.3116405076653423       -0.2352953473819687       -0.9936641819349231
-       -0.5519091061222947       -1.1883479224740860       -0.0762094261759606       -0.9934394819660318
+        0.0756696751993311       -1.7205798370945578        0.1653350637379790        0.8475065253219278
+       -0.9054966160954052       -0.8145139966887459        0.1540920266923442        0.9207393412409772
-       -0.8709292656712778       -1.3888481491043438        0.6539740277795172       -0.6738758902636315
+       -5.4929488640656539        0.1781139754395338       -0.3068649552305967        0.1207489421105395
+       -2.0721188706483189       -1.5715675526965314        0.4148822563942448        0.4308753055723465
-       -2.8266755193440227       -0.4611058838165392        0.4466932965626749       -0.7095764258838037
+       -3.0709366366396051       -0.1875533570336677       -0.0408897891379444        0.9977500474782615
-       -2.9855241834467927       -0.6098274912072317       -0.1837890469947915       -0.9963537733476465
-       -3.6534134919086783       -3.0103248836751502        1.4164003244471042       -0.1586318904925156
+       -3.6246362920069508       -3.0128906688772781        1.0869578686846226        0.3123697133706422
