21
s                      x[A]                      y[A]                      z[A]                      q[e]
N 1.9567374208928976 1.4165282577536185 0.3152296683141919 0.0707249461841811
O 1.6544684930838702 -0.0470538112756257 -0.2272378765855262 -0.3496602100029151
N 1.4695812396190606 0.1140701221972951 0.2627440396312571 0.9824851761690530
N 3.0390521231718326 -0.6781413247482329 0.0632773556596001 0.1071394941056757
O 1.5061576918600288 -0.0159963258996302 0.3944263003022383 -0.8194842575378962
N 0.4954743459736702 -0.6411921528242859 0.0191387921872667 0.3116552922920345
N 0.7560756341151444 -1.9865924038259992 -0.3209565365030910 0.0918298459672651
N 1.2562776174941064 -0.9881885108399353 -0.1052833605393035 0.5593901217632046
O 0.9577304927975345 -0.7996569403353854 -0.0721968646487997 -0.9963138680841535
N -0.7265975507063671 0.8832267867870750 0.0388345595265363 0.9989733053171830
O -0.6982501693308275 0.9801316637217007 0.0525297686676395 -0.8354521971080898
N -0.5238650894077375 1.7350440205433668 -0.0483875860463433 0.2899344186932475
O -0.5312451424316863 1.3478119823889314 -0.0578269168589496 -0.8678253524624289
N -0.5247627172683684 -0.4073002674663626 0.0221754914221614 0.9219570073558310
O -0.6329088868532733 -0.2323392736125044 0.1903552614196013 -0.9704818863270434
O -0.8032285210853349 -0.2510481953285360 -0.4623111264985112 -0.3320651923316272
N -0.6058777940190593 0.3414250927137117 -0.0388403624166603 0.9769593393400061
O -1.4485489144402621 -0.5491663723452918 0.5835192204662930 -0.1970026432733326
O -1.5641189483081934 -0.5210298537028721 -0.4141316088000356 -0.1946060569702309
N -2.7567794031540886 -0.0019835900302600 0.2106371682260884 0.1283355164991325
N -1.7000691404784920 -1.9060216280491256 0.1029536932314905 0.1235072004109040
