13

C -2.30455 -1.00779 -0.09523
C -1.46883  0.20452  0.19728
H -1.72095 -1.74577 -0.65694
H -3.18887 -0.72346 -0.66617
H -2.61599 -1.48260  0.84341
C -0.14488 -0.02519  0.93416
O -1.81739  1.34873 -0.09828
C  1.04497 -0.03392  0.01261
H -0.15263 -0.98067  1.46343
H  0.00185  0.78263  1.65530
F  0.92355 -1.01423 -0.97563
F  2.21635 -0.31718  0.71046
F  1.24404  1.16856 -0.63991
