25
s                      x[A]                      y[A]                      z[A]                      q[e]
N       -1.8398623063680375        1.1250841976814248       -1.0796177487569665        0.1158659338886357
O       -1.8795103460385505        0.1497781773658457        0.3349238364461006       -0.2341991647481463
N       -3.3675799327835874       -0.3426669592710150        0.0367975286806741        0.0569852111266852
N       -2.1552363515602351       -0.3285847270132828        0.0304366478195512        0.3189271149812888
O       -1.8619809767381095       -0.3521675126801601       -0.2729172572829373       -0.2877498234141676
N       -1.3844351558400354       -0.5955388476793156        0.5646367053426244        0.5692545008206258
O       -0.9110638042984249       -0.5265465670761192       -0.1934196894176532       -0.2058946535748549
O       -1.0855648441162200       -0.5725137156324235        0.4992041441763981       -0.9992971180892700
N       -0.6118479808570919       -0.5261069260612391        0.2561862570740315        0.6691943173322236
N       -0.9699756689751112       -1.6182806245168420        1.1990202491241764        0.0628076875181509
N        1.5748026301489921       -1.1935960009023492       -0.2505500473018779        0.7576134719858190
O        1.3237143620238372       -0.9476007306400880       -0.2632660296068139       -0.9235083265987739
N        1.1226264938411308       -0.5820195152163016       -0.1314028364536982        0.9955526175656415
O        1.4684477298912517       -1.0466344697432524       -0.1742209847174101       -0.9936641819349231
O        0.3814068011369536        0.1157852049184733        0.1909720708299256       -0.9934394819660318
N        0.6162038863573416       -0.1853505097329741       -0.0399279385385115        0.8475065253219278
N        0.1619678774108007        0.2977958054174771        0.1626383699724928        0.9207393412409772
O        0.3852228883310386        0.3421569327466639       -0.1669231777007710       -0.6738758902636315
N        2.2053961760567899        1.5835415182431944       -0.1694488893157241        0.1207489421105395
N        0.5185958961992782        0.9479132106313354        0.0737402374857078        0.4308753055723465
O        0.9379084133605128        0.8969432622420549        0.2684900886865326       -0.7095764258838037
N        1.1257330793812281        0.8621664021683987        0.0111920218972259        0.9977500474782615
O        0.9445908750374276        0.9937299278640744       -0.0614762415122935       -0.9963537733476465
O        0.3394940423151112        2.2039761013153787        0.7284452789877212       -0.1586318904925156
N        0.3452157066178657        2.1853007882135183        0.5518733665517990        0.3123697133706422

        RMSE         5.664934707E-01 kcal/mol

Coordinates in bohr
s                   x[bohr]                   y[bohr]                   z[bohr]                      q[e]
+       -3.4768358675887749        2.1261010016983479       -2.0401818653340054        0.1158659338886357
-       -3.5517598039773319        0.2830397347916949        0.6329143237707610       -0.2341991647481463
+       -6.3638037785486619       -0.6475467052656305        0.0695372513001536        0.0569852111266852
+       -4.0728064400797885       -0.6209351430634290        0.0575169285559649        0.3189271149812888
-       -3.5186340968474901       -0.6655001492491995       -0.5157388711758623       -0.2877498234141676
+       -2.6162032829931947       -1.1254053191846529        1.0670087334783911        0.5692545008206258
-       -1.7216610729417317       -0.9950288040738752       -0.3655102402704782       -0.2058946535748549
-       -2.0514202468049758       -1.0818941256135244        0.9433591131869558       -0.9992971180892700
+       -1.1562251142342677       -0.9941980029622334        0.4841218629760527        0.6691943173322236
+       -1.8329883627207018       -3.0581071744716861        2.2658198897229096        0.0628076875181509
+        2.9759456726322520       -2.2555695461471545       -0.4734709701210532        0.7576134719858190
-        2.5014576125601868       -1.7907058571935006       -0.4975006940935504       -0.9235083265987739
+        2.1214566145427063       -1.0998574834305450       -0.2483153730058158        0.9955526175656415
-        2.7749640390447383       -1.9778525012785246       -0.3292299464234788       -0.9936641819349231
-        0.7207543965357996        0.2188023266759272        0.3608849114800933       -0.9934394819660318
+        1.1644565826581150       -0.3502617006093266       -0.0754528685918996        0.8475065253219278
+        0.3060749294281408        0.5627525135491622        0.3073419767388956        0.9207393412409772
-        0.7279657562034871        0.6465828948178879       -0.3154390898455866       -0.6738758902636315
+        4.1675947708793082        2.9924597777713187       -0.3202119930697357        0.1207489421105395
+        0.9800042136029919        1.7912963587966435        0.1393488532742066        0.4308753055723465
-        1.7723900320140609        1.6949771157121831        0.5073727350174300       -0.7095764258838037
+        2.1273272103987981        1.6292583746696037        0.0211498561758838        0.9977500474782615
-        1.7850180544272976        1.8778774063340644       -0.1161732596807360       -0.9963537733476465
-        0.6415507612001511        4.1649112185403601        1.3765620746695131       -0.1586318904925156
+        0.6523631397141656        4.1296199914706699        1.0428895187172988        0.3123697133706422
