21
s                      x[A]                      y[A]                      z[A]                      q[e]
N        2.0434803453766532       -1.5835358270058877       -0.4633894791742917        0.0690680479201058
O        1.8707456053827993        0.1128891064460395        0.4366038819494831       -0.3117950550350966
N        1.9949014594809988        0.2940321747272769        0.1256245518326942        0.5776243102962968
N        3.3249673929659056        0.4845479075112266        0.1507085990683043        0.0604184539076988
O        1.8569599029407937        0.3302155424980716       -0.1992217351556696       -0.3968494342195521
O        0.9337151687263704        0.0366501547517672        0.0796131731072695       -0.9828651838991298
N        0.7590209408211032       -0.1002422686588617        0.0713688452302039        0.7759263489545838
N        1.1055825067859870        1.2415981296479051        0.0753837960043947        0.9970342621901004
O        1.1115412496584116        1.2686589287215992       -0.2048569034430599       -0.3970377457969525
O        1.1598595359342849        1.2464607983273277        0.3437960544288738       -0.3893757401670396
N       -1.7140313015974387        1.3372314763926163        0.0014384271909518        0.1691966627363242
O       -1.4103043071788302        0.9976926582626119        0.0235336524155039       -0.6800109224217911
O       -0.4134067637874489       -0.4057428623953880       -0.3542107775309287       -0.9821368279659007
N       -0.2680379732632817       -0.4980193696766349       -0.2368180702254840        0.8921713087406896
O       -0.6022313926081837       -0.5018636234577220        0.3141441322804255       -0.3335771210350215
N       -0.7865581870732803        0.1345987526009729       -0.0532177412792429        0.9988617281482304
N       -2.3867039725292689       -1.5737710599690795       -0.1255656159357314        0.0655379221577991
N       -1.1517336973106480       -1.0510936500521562       -0.0631155882178696        0.9908754307264420
O       -1.0120480006115333       -1.0203127419031917       -0.4146970696181619       -0.6595771554465193
O       -1.0835043781962428       -1.1205345257393524        0.2958549200887388       -0.5578053818499882
N        0.0169100096917811       -2.2886257633599332       -0.1851007480205654        0.0943160920587207

        RMSE         5.230238746E+00 kcal/mol

Coordinates in bohr
s                   x[bohr]                   y[bohr]                   z[bohr]                      q[e]
+        3.8616181955178472       -2.9924490228914937       -0.8756792050579552        0.0690680479201058
-        3.5351968445772965        0.2133294937306705        0.8250617621962437       -0.3117950550350966
+        3.7698174056951945        0.5556402823073162        0.2373959975971734        0.5776243102962968
+        6.2832777487830764        0.9156628398598884        0.2847979769905239        0.0604184539076988
-        3.5091456425148508        0.6240169376908357       -0.3764745176827091       -0.3968494342195521
-        1.7644659480784861        0.0692587549364869        0.1504470931514038       -0.9828651838991298
+        1.4343417016392188       -0.1894304339598134        0.1348675713752726        0.7759263489545838
+        2.0892481469226363        2.3462804229152217        0.1424547287456881        0.9970342621901004
-        2.1005085390035427        2.3974179219005469       -0.3871234424167420       -0.3970377457969525
-        2.1918168669164109        2.3554695349581722        0.6496803858835642       -0.3893757401670396
+       -3.2390497304811658        2.5270012567236702        0.0027182334423105        0.1691966627363242
-       -2.6650888941215376        1.8853658814963266        0.0444721577970214       -0.6800109224217911
-       -0.7812255619701154       -0.7667428872866052       -0.6693613602189266       -0.9821368279659007
+       -0.5065183606903901       -0.9411202138619771       -0.4475212942856037        0.8921713087406896
-       -1.1380523961825351       -0.9483848006649873        0.5936463739296000       -0.3335771210350215
+       -1.4863795553051236        0.2543547792440933       -0.1005669560332408        0.9988617281482304
+       -4.5102168506225420       -2.9739962875130281       -0.2372846248929554        0.0655379221577991
+       -2.1764612573780697       -1.9862791308063874       -0.1192711759789465        0.9908754307264420
-       -1.9124935469729745       -1.9281116445119713       -0.7836638866082443       -0.6595771554465193
-       -2.0475265305253791       -2.1175033677671515        0.5590847718369277       -0.5578053818499882
+        0.0319552870963038       -4.3248758964171312       -0.3497897193762488        0.0943160920587207
