25
s                      x[A]                      y[A]                      z[A]                      q[e]
N       -1.9169190903605382        1.2968284491746656        0.0123396068890181        0.1158659338886357
O       -1.7899494835034246       -0.3262779696895624        0.4566696687755344       -0.2341991647481463
N       -3.2819049854119515       -0.6827133042838024        0.0082408721889913        0.0569852111266852
N       -2.0633524064795172       -0.5648893495400211       -0.0342792889984569        0.3189271149812888
O       -1.8601776509671468       -0.3519275473748848       -0.3451983295406602       -0.2877498234141676
N       -1.2864982021420717       -0.9347683448990298       -0.1141165007186297        0.5692545008206258
O       -0.8188020211142170       -0.5437292924843649        0.4799964363707605       -0.2058946535748549
O       -1.0477975211396062       -0.7690818151408536       -0.1589230372180676       -0.9992971180892700
N       -0.6560113663385213       -0.4262559259771439        0.0219890238139878        0.6691943173322236
N       -0.7518646975760032       -2.2079935269371123       -0.0349374897683480        0.0628076875181509
N        0.5314235441821680        1.5969477389979905       -0.0069300287891332        0.7576134719858190
O        0.5043402434744582        1.2516719705782577        0.0722909428957686       -0.9235083265987739
N        0.5936664807442257        0.8286130213666366        0.0075481400158813        0.9955526175656415
O        0.5307830551543798        1.3955368295061485       -0.0451255193942329       -0.9936641819349231
O        0.4761528724594015       -0.1994917021794858       -0.1107934571260164       -0.9934394819660318
N        0.4800808800278610        0.2018517502705498        0.0519155531332089        0.8475065253219278
N        0.4502307462525717       -0.4759033453937325       -0.0148999159761882        0.9207393412409772
O        0.6805350580827807       -0.2943099450900676        0.2395818002016936       -0.6738758902636315
N        2.8466613394734921       -0.0268410168947489        0.0187647218925701        0.1207489421105395
N        1.1581197814079576       -0.7024122942441855        0.0772605724359264        0.4308753055723465
O        1.4141162419273205       -0.4347618400219362       -0.2020774137612749       -0.7095764258838037
N        1.5425252628366497       -0.2402676049812368       -0.0084727262821053        0.9977500474782615
O        1.5104206236312598       -0.4220816605755537        0.1183680237103383       -0.9963537733476465
O        1.8260693706482587       -1.8771674418196806       -0.3634930879917347       -0.1586318904925156
N        1.8300331560734855       -1.8222669771007132       -0.1974077848825249        0.3123697133706422

        RMSE         4.622895846E-01 kcal/mol

Coordinates in bohr
s                   x[bohr]                   y[bohr]                   z[bohr]                      q[e]
+       -3.6224520854431641        2.4506506006423248        0.0233184775160570        0.1158659338886357
-       -3.3825143022261672       -0.6165760034837034        0.8629806037893003       -0.2341991647481463
+       -6.2019015922032574       -1.2901411673027412        0.0155729914720957        0.0569852111266852
+       -3.8991709485506241       -1.0674861618186569       -0.0647784679825031        0.3189271149812888
-       -3.5152263050253905       -0.6650466805426173       -0.6523303017973864       -0.2877498234141676
+       -2.4311292629423988       -1.7664561626066704       -0.2156489327538216        0.5692545008206258
-       -1.5473115708772081       -1.0274994491844049        0.9070618059364822       -0.2058946535748549
-       -1.9800503498874649       -1.4533539986861990       -0.3003210153680892       -0.9992971180892700
+       -1.2396818175671898       -0.8055069594502270        0.0415532327746071        0.6691943173322236
+       -1.4208183618188222       -4.1725030526948341       -0.0660222871731628        0.0628076875181509
+        1.0042449551244352        3.0177938633753114       -0.0130958564529999        0.7576134719858190
-        0.9530649342134455        2.3653172233050155        0.1366100834241138       -0.9235083265987739
+        1.1218670584709700        1.5658516743710789        0.0142639173866245        0.9955526175656415
-        1.0030346062755549        2.6371824057563558       -0.0852748729241359       -0.9936641819349231
-        0.8997985227983203       -0.3769846814206266       -0.2093692904608249       -0.9934394819660318
+        0.9072213813214342        0.3814445259556472        0.0981061770734188        0.8475065253219278
+        0.8508128036778589       -0.8993269849833168       -0.0281567604873293        0.9207393412409772
-        1.2860248785489912       -0.5561651922187597        0.4527439870253580       -0.6738758902636315
+        5.3794103035338336       -0.0507221708598619        0.0354601851973403        0.1207489421105395
+        2.1885292073361264       -1.3273668632760085        0.1460013221999970        0.4308753055723465
-        2.6722924068043001       -0.8215808074415696       -0.3818709681496325       -0.7095764258838037
+        2.9149502883611200       -0.4540399702342247       -0.0160111322091476        0.9977500474782615
-        2.8542813129062972       -0.7976187410662473        0.2236831468242380       -0.9963537733476465
-        3.4507709966123485       -3.5473323566654882       -0.6869023848013222       -0.1586318904925156
+        3.4582614654861086       -3.4435855141862795       -0.3730466484612661        0.3123697133706422
