25
s                      x[A]                      y[A]                      z[A]                      q[e]
N 0.0649464173075528 -0.0014011264457521 0.2403556167697014 0.1158659338886357
O -0.1683181527876417 0.4340813636724439 0.3106697779136798 -0.2341991647481463
N -0.0881249759184443 -0.0090555429287862 -0.3907368496276918 0.0569852111266852
N -0.5025803644194760 -0.0266426043236581 0.1369014663222191 0.3189271149812888
O -0.2383038496988141 -0.3400722244607910 0.2789780019946581 -0.2877498234141676
N 0.0318727245462508 0.1056224714917325 -0.5434856564743205 0.5692545008206258
O -0.1634382683308315 -0.4909831723805758 0.0461773172619196 -0.2058946535748549
O -0.0776104520626728 0.1656198563678666 -0.2635593579217367 -0.9992971180892700
N -0.1859872453463292 -0.0184063139804357 0.2475085859169854 0.6691943173322236
N 0.0197332153374841 -0.0140550764015994 0.3809159043928315 0.0628076875181509
N 0.0443837374462976 0.0059217540152645 0.2691688941142744 0.7576134719858190
O 0.0232933638886443 -0.0733207048047899 -0.0719518444516352 -0.9235083265987739
N 0.0942928415066888 -0.0062763196846857 -0.4853016420363204 0.9955526175656415
O 0.0546772165753457 0.0459863563526049 0.0758155507610759 -0.9936641819349231
O -0.0475412099949978 0.1103118172362565 -0.1188017402062056 -0.9934394819660318
N -0.0321044846355913 -0.0478436812919557 0.2966785255083897 0.8475065253219278
N -0.0816907994900334 0.0177706080468659 -0.3951426429385501 0.9207393412409772
O 0.1524977754479716 -0.2473218567550691 -0.2203239106871750 -0.6738758902636315
N -0.0649373490976377 0.0207386177434839 0.2157468615458936 0.1207489421105395
N 0.2677267057679226 0.0749766250411278 -0.4920689633256433 0.4308753055723465
O 0.3540723042672722 -0.2055192812497978 -0.1329970237336472 -0.7095764258838037
N 0.4522966225286655 -0.0081305525900404 0.0910474900076816 0.9977500474782615
O 0.3114709285508941 0.1201921468292800 -0.0455164316715661 -0.9963537733476465
O -0.0296494039978321 -0.3685313913739852 -0.1320049164824121 -0.1586318904925156
N -0.0244959593460960 -0.1952349675797775 -0.0846997613878508 0.3123697133706422
