13
s                      x[A]                      y[A]                      z[A]                      q[e]
C 1.9542314412481361 0.7187002402551390 0.8219579535892865
C 1.3882300559373348 0.3720136662176042 -0.5248784209961339
H 1.5675415084501856 1.6784246899349591 1.1782146908042028
H 3.0426769531299933 0.7502947480043261 0.7617583146738205
H 1.6627130322159818 -0.0381962763355065 1.5595784857231552
C -0.1078115144397749 0.5826758884130302 -0.7659812134008589
O 2.0904691841962371 -0.0269853799456144 -1.4569796273366507
C -1.0045487594167002 -0.2063917710608200 0.1457573314297751
H -0.3272388678455809 0.2862096177465137 -1.7936729535278204
H -0.3593496886515487 1.6412054673540548 -0.6427688071781071
F -0.6598453717774191 -1.5520563067664006 0.1937835096503984
F -2.3304714431239417 -0.1382394327089870 -0.2641485908551056
F -0.9753164972395373 0.2565125103121970 1.4627653370023610
