30
s                      x[A]                      y[A]                      z[A]                      q[e]
N 1.8547169938770620 1.6517568220402101 0.3638508594518449 0.2137068255539760
N 1.6520049262743286 0.9965621503561344 -0.1410166649585113 0.4524136045707061
O 1.7316726612075912 1.3278270959401632 -0.5917593467184503 -0.5303393512711568
N 1.6112701862158691 1.7721455775016044 -1.0361651291819880 0.2065219334641430
N 3.3308222041957389 1.2805387777585171 0.2590909229476532 0.0640972179527254
N 1.3207888540345414 1.6942274322973578 0.9298953805909520 0.2729192555687945
O 1.6214599089609119 1.5199751687929892 0.5572474874127173 -0.5760168259183410
O 2.5228153930240866 -1.0327460154942343 0.3031059728445633 -0.7855321009151053
O 2.1339233803775044 -1.4052805563464319 0.1111400165595162 -0.7445427033607991
N 2.3426195556016500 -1.2577591465737787 0.2241358875024390 0.9977538426035523
N 1.7799168477653087 0.0477360896999253 -0.0631643558418749 0.2084365764815679
N 1.3222346722101859 -0.5706128631612963 -0.2026826217181261 0.3300899125146088
N 0.1737498807042885 -0.3784501517782830 -1.1878672342119549 0.6266498413516267
O 0.1610830508381139 -0.0362531913518039 -0.8184757461539771 -0.5811225412727979
N 0.0333078901276502 -1.7372946696505900 -0.7822044957796833 0.5003074335780895
O 0.0743900013915544 -1.5835474825104154 -0.8245401609622954 -0.5967490130385100
N 0.0555277454787586 -0.2047053730896818 -1.6152952163931631 0.9708061175491041
O 0.0141914411843556 0.1069006156652130 -1.5762377577236817 -0.1568654630532827
O 0.0826857993165898 -0.3930745792322889 -1.6012043992922507 -0.7813807259506527
N -0.6487636886886400 0.3543380533119100 0.0184469484175865 0.1400529194232831
N -0.7780049818266902 -0.2117853921426847 0.3802368128438966 0.1778327620465852
N -1.0126838036542334 -0.2082735719197169 0.8841608460067568 0.7120624373414439
O -0.9818905064114870 -0.2476349299502192 1.0351365305763685 -0.9970019554920370
N -1.7956504113575045 -0.4153179522163067 -0.2795722914922232 0.9931708722557875
N -2.4601175372284754 -0.7077057256135970 -0.5674770631518222 0.8506195801821621
O -2.1719775714761913 -0.6418672451856202 -0.5504836842992707 -0.8089940633040810
O -2.3324402072249932 -0.5936852326436024 -0.4714745113312379 -0.9883399134133223
N -1.2287185605751718 1.7875229762640472 -0.1012199497359786 0.2529889584625400
N -1.2135792751091252 0.9522018875303853 0.0025761670325360 0.5419198115726583
O -1.1922629860076908 1.3789607417908751 -0.0755802688108691 -0.9654652454832693
