25
s                      x[A]                      y[A]                      z[A]                      q[e]
N 1.6616623623895519 0.1211562580173473 -1.6390449243375349 0.1158659338886357
O 1.8201590300213562 -0.5294231842220083 -0.1048585049874411 -0.2341991647481463
N 3.3654962581892902 -0.1661182484639762 0.0271114240716267 0.0569852111266852
N 2.1539734355471887 -0.1454753246427306 0.1353231414027766 0.3189271149812888
O 1.8958348974429999 0.2499165799504611 0.0448123204696558 -0.2877498234141676
N 1.4173607886454294 -0.2251365300822443 0.7731782346885336 0.5692545008206258
O 1.0198897400702873 -0.0306629293380559 0.0190876730048389 -0.2058946535748549
O 1.1272723316595017 -0.1733460361685682 0.7181895677162712 -0.9992971180892700
N 0.7105351243710758 0.0240305613152209 0.4341031516198048 0.6691943173322236
N 1.1598384701814921 -0.3959559259485261 1.9592139666649975 0.0628076875181509
N -1.0502337082249424 1.5077400961021616 -0.0548933063740447 0.7576134719858190
O -0.8974736612782227 1.1984373958759105 -0.0932284883741475 -0.9235083265987739
N -0.8541925909393204 0.7609015675035052 -0.0147614119398771 0.9955526175656415
O -1.0047674918317602 1.3269508648048107 0.0031018922363294 -0.9936641819349231
O -0.4469441201956776 -0.1851984810281231 0.2136019012246589 -0.9934394819660318
N -0.5329947713080040 0.2000019638896890 0.0330023484488202 0.8475065253219278
N -0.3054374455401639 -0.4285746849086967 0.1668824313956796 0.9207393412409772
O -0.4976542827443406 -0.3386521751258997 -0.1692798790004298 -0.6738758902636315
N -2.6156155820487439 -0.8075422698827376 -0.5027350512351999 0.1207489421105395
N -0.8500294803818327 -0.8753466044948713 -0.0790316387213218 0.4308753055723465
O -1.2437171644629239 -0.7134084497746513 0.1051637747180689 -0.7095764258838037
N -1.3717871673269886 -0.5703926901985354 -0.1361300306151555 0.9977500474782615
O -1.2498220312771882 -0.7351498473153857 -0.2303926194713522 -0.9963537733476465
O -1.1821424052186764 -2.2126353252858726 0.2899470507907530 -0.1586318904925156
N -1.1697304624084957 -2.1545602181995802 0.1235200260014845 0.3123697133706422
