23
s                      x[A]                      y[A]                      z[A]                      q[e]
N 1.0294985118200459 1.6403602002554689 -0.8645581906089279 0.2856065124296451
O 1.0850339388436738 1.4107275366773337 -0.7852923141345373 -0.2980193526493612
N 2.5735999612005696 0.4752635028142017 -0.4212984807442208 0.9235469647741466
O 2.4848936669203279 0.5010461442712205 -0.4148278142971459 -0.9987019282037162
O 1.3923771323653469 0.3892537188586958 -0.2000904169389333 -0.9994297377915048
N 1.6767085317021799 0.1078916512355506 -0.1038760274389296 0.3910255639585828
N 1.8007577565967738 0.6974905982920451 -0.4110850491892671 0.3788084070601841
N 0.9340359484326829 0.7127727102037853 -0.3408520685622141 0.3521750120262308
N 1.2581539442504259 -0.3154175415194359 0.3423251811521927 0.5091785922378865
N 0.6610841284780743 -0.1535118628527377 0.6679009400217994 0.9946620798872232
O 0.8255891009736058 -0.2227236607445146 0.6586145451698568 -0.5088390984708862
O 0.9349661177816246 -0.2644718509730803 0.4143960157043305 -0.9513197152299744
N 1.4318169102474634 -1.3983763419175155 0.7725035232340144 0.0534150746794947
N 1.0155255163273815 -1.5445856966119846 0.8631136209283820 0.0449830180293293
O 0.8744570978294839 0.1303819185725767 0.5827524710577593 -0.1594766348608674
O -0.8674564770568592 -0.0759450211741733 1.4995899307528009 -0.2085098172073890
N -0.8995653594076565 0.2009809294980733 1.3691283111978085 0.7433887315217406
O -0.8422250458507909 0.3680350624760466 1.3437724879095514 -0.4563903046399361
N -0.5458681455131502 -0.3045512661189156 -0.0010851762003561 0.2740207269363132
N -1.2822779275125094 -0.1541274668401775 -0.0227516474206732 0.2947455612059413
O -1.4777362750563774 -0.3840823611189120 -0.6910550404740388 -0.8294346811293033
N -1.7091358862604737 -0.3388363240802689 -0.5835203408004876 0.8271270632704910
O -1.8890534145348039 -0.2264923185690352 -0.3211314796926450 -0.6625620378342709
