8
s                      x[A]                      y[A]                      z[A]                      q[e]
C 1.5113273066455082 0.5978076771061477 -0.3580404408628036
C 0.7240770338194036 -0.2946166956348566 0.2485467696158551
C -0.7337073483795151 -0.0948604565211288 0.4700965856857384
O -1.6014728471889770 -0.2734972360313997 -0.3882327850157586
H -1.0322462959441645 0.1887672375049285 1.4933473522546248
H 2.5784636699362107 0.4322642650577547 -0.4605648595134517
H 1.1140899421113726 1.5153879152739640 -0.7825215713389966
H 1.1412892435324917 -1.1984264007931102 0.6919789519617960
