21
s                      x[A]                      y[A]                      z[A]                      q[e]
N 0.0271984565191016 -0.0450243346213319 0.3788074081983306 0.0707249461841811
O 0.1028048081611549 0.2923703842674949 0.3139069444516584 -0.3496602100029151
N 0.3753596305454916 -0.1822764355217218 0.3124058910728149 0.9824851761690530
N 0.0336457010611658 -0.0110070913387004 -0.1884913504090528 0.1071394941056757
O 0.2563743936134173 -0.3289978021751240 0.3210080346028981 -0.8194842575378962
N 0.1011331318646143 0.1261682519451059 0.2906848283010081 0.3116552922920345
N 0.0297640749502890 -0.0163093213716106 0.2435969480872991 0.0918298459672651
N 0.0909411480529779 0.0397428669405847 -0.5502758555222819 0.5593901217632046
O 0.0474153226095592 0.0585278311054001 -0.1987845403567869 -0.9963138680841535
N 0.2263186640735181 0.0842525704631268 -0.4262998675833646 0.9989733053171830
O 0.2005791463316106 0.0998850449867650 -0.3289609996468599 -0.8354521971080898
N 0.0344599067506495 0.0064671299408492 0.4289356775711892 0.2899344186932475
O 0.0348283587134310 -0.0024864713939497 0.0417106334445909 -0.8678253524624289
N 0.0011218927728883 0.0786092634955533 -0.3512905158974377 0.9219570073558310
O 0.1206948398162111 0.2419184635780346 -0.1782909986819024 -0.9704818863270434
O 0.2581489303297531 -0.4185797386499197 -0.1999453221352735 -0.3320651923316272
N 0.0923177418099372 0.0130189249724067 0.3959823597016033 0.9769593393400061
O 0.1996733732285260 -0.5144377957588983 -0.0956064304444770 -0.1970026432733326
O 0.2308439914601105 0.4896804246577978 -0.0748287649621873 -0.1946060569702309
N 0.0218175340267491 -0.0000566462349801 0.1847041146048669 0.1283355164991325
N 0.0371600737975828 0.0045553282255525 -0.1492128205201013 0.1235072004109040
