13

C         2.092317       1.137585        0.038544
C         1.488098       -0.220034        -0.179115
H         2.231002       1.647460        -0.922121
H         3.056082       1.034126        0.537888
H         1.429666       1.764497        0.644337
C         0.137644       -0.298589        -0.898169
O         2.054055       -1.262707        0.156260
C         -1.041583       -0.003045        -0.011786
H         0.014124       -1.313574        -1.281896
H         0.103787       0.408345        -1.731850
F         -1.089403       -0.819671        1.107290
F         -2.240200       -0.175239        -0.695896
F         -1.039948       1.313277        0.456019
