21
s                      x[A]                      y[A]                      z[A]                      q[e]
N        1.9783314420316391        1.3651562699347983       -0.9806980916416187        0.0690680479201058
O        1.8245354776436420       -0.4100252790638549       -0.2828738885409435       -0.3117950550350966
N        1.9789878343716445       -0.3094250905272040        0.0524694183512054        0.5776243102962968
N        3.3308717308402720       -0.4284260310480299        0.0974024974255487        0.0604184539076988
O        1.8658422176329617       -0.0953297532523464        0.3100411126652883       -0.3968494342195521
O        0.9248980765064444       -0.0905014142735598        0.2142406106366148       -0.9828651838991298
N        0.7593751852889745        0.0567228742936090        0.1970258277821949        0.7759263489545838
N        1.0525721908951522       -1.2016896457525796        0.6574521103761792        0.9970342621901004
O        1.0787723275216243       -1.0688220919733205        0.9033283298008201       -0.3970377457969525
O        1.0765432505664039       -1.3517111552604235        0.4292478141467799       -0.3893757401670396
N       -1.7349468284120162       -1.3038730839913093       -0.1532756546562792        0.1691966627363242
O       -1.4257531031459685       -0.9779863058757009       -0.1249361150873789       -0.6800109224217911
O       -0.4586929007582017        0.3891770097223360        0.4196978026573042       -0.9821368279659007
N       -0.2866323551239497        0.4863521446020490        0.3315394168079818        0.8921713087406896
O       -0.5283742814131485        0.4943701618278224       -0.2698495525122079       -0.3335771210350215
N       -0.7871556055970542       -0.1290497375732783        0.0617407781320722        0.9988617281482304
N       -2.3108331499307599        1.6484078607631689       -0.1497925668258796        0.0655379221577991
N       -1.1065561936171511        1.0766362048589082        0.0130992826049947        0.9908754307264420
O       -1.0442624172863300        1.0186194723641568        0.3802901072018486       -0.6595771554465193
O       -0.9699501900044236        1.1426645092358179       -0.3271317471961692       -0.5578053818499882
N        0.0704324268049879        2.2398124245845121        0.4040709027146370        0.0943160920587207

        RMSE         5.508007067E-01 kcal/mol

Coordinates in bohr
s                   x[bohr]                   y[bohr]                   z[bohr]                      q[e]
+        3.7385046108218476        2.5797714686283473       -1.8532508049618022        0.0690680479201058
-        3.4478723589278673       -0.7748354819451032       -0.5345541773856667       -0.3117950550350966
+        3.7397450125753058       -0.5847286774414110        0.0991528306458492        0.5776243102962968
+        6.2944353303177971       -0.8096078636976687        0.1840640440698982        0.0604184539076988
-        3.5259307846431782       -0.1801471252544073        0.5858927905696092       -0.3968494342195521
-        1.7478040585599210       -0.1710228869436279        0.4048560790540492       -0.9828651838991298
+        1.4350111266649541        0.1071906974636932        0.3723248541499685        0.7759263489545838
+        1.9890731680649534       -2.2708643182708124        1.2424044292152496        0.9970342621901004
-        2.0385842507385625       -2.0197810306684731        1.7070431446907950       -0.3970377457969525
-        2.0343719057806262       -2.5543638841684051        0.8111608086888363       -0.3893757401670396
+       -3.2785743479303866       -2.4639630310996461       -0.2896490090006226        0.1691966627363242
-       -2.6942828874675064       -1.8481262725533028       -0.2360950406938258       -0.6800109224217911
-       -0.8668039581248086        0.7354379626998535        0.7931139024787517       -0.9821368279659007
+       -0.5416566498792337        0.9190723538269354        0.6265186975610955        0.8921713087406896
-       -0.9984826836064332        0.9342242104528503       -0.5099417493254234       -0.3335771210350215
+       -1.4875085126973315       -0.2438686605757007        0.1166731614422722        0.9988617281482304
+       -4.3668417749981634        3.1150393998942101       -0.2830669269302523        0.0655379221577991
+       -2.0910881483655013        2.0345475639356452        0.0247540565634138        0.9908754307264420
-       -1.9733699717797220        1.9249118288266154        0.7186441508324914       -0.6595771554465193
-       -1.8329402144441438        2.1593229757363730       -0.6181894091432666       -0.5578053818499882
+        0.1330979970127819        4.2326320548623944        0.7635833413971781        0.0943160920587207
