21
s                      x[A]                      y[A]                      z[A]                      q[e]
N 1.9783314420316394 1.3651562699347983 -0.9806980916416187 0.0690680479201058
O 1.8245354776436420 -0.4100252790638549 -0.2828738885409435 -0.3117950550350966
N 1.9789878343716445 -0.3094250905272040 0.0524694183512054 0.5776243102962968
N 3.3308717308402720 -0.4284260310480299 0.0974024974255487 0.0604184539076988
O 1.8658422176329617 -0.0953297532523464 0.3100411126652883 -0.3968494342195521
O 0.9248980765064444 -0.0905014142735598 0.2142406106366148 -0.9828651838991298
N 0.7593751852889745 0.0567228742936090 0.1970258277821949 0.7759263489545838
N 1.0525721908951522 -1.2016896457525796 0.6574521103761792 0.9970342621901004
O 1.0787723275216243 -1.0688220919733205 0.9033283298008201 -0.3970377457969525
O 1.0765432505664039 -1.3517111552604235 0.4292478141467799 -0.3893757401670396
N -1.7349468284120162 -1.3038730839913093 -0.1532756546562792 0.1691966627363242
O -1.4257531031459687 -0.9779863058757010 -0.1249361150873789 -0.6800109224217911
O -0.4586929007582017 0.3891770097223360 0.4196978026573042 -0.9821368279659007
N -0.2866323551239497 0.4863521446020490 0.3315394168079818 0.8921713087406896
O -0.5283742814131485 0.4943701618278224 -0.2698495525122079 -0.3335771210350215
N -0.7871556055970542 -0.1290497375732783 0.0617407781320722 0.9988617281482304
N -2.3108331499307599 1.6484078607631689 -0.1497925668258796 0.0655379221577991
N -1.1065561936171511 1.0766362048589082 0.0130992826049947 0.9908754307264420
O -1.0442624172863300 1.0186194723641568 0.3802901072018486 -0.6595771554465193
O -0.9699501900044237 1.1426645092358181 -0.3271317471961692 -0.5578053818499882
N 0.0704324268049879 2.2398124245845121 0.4040709027146371 0.0943160920587207
