21
s                      x[A]                      y[A]                      z[A]                      q[e]
N       -2.1520245627360794        1.5412656398831115       -0.2169812379187663        0.0690680479201058
O       -1.8758577320489243       -0.2760879503983121        0.3308058818371805       -0.3117950550350966
N       -1.9710240663921752       -0.4166877118260539       -0.0138506094648369        0.5776243102962968
N       -3.3057575097112215       -0.6496564089218622       -0.0564678746494750        0.0604184539076988
O       -1.8284939113079803       -0.3505874836114476       -0.3342886615795534       -0.3968494342195521
O       -0.9277302852354782       -0.1688403356023402        0.1387160518336553       -0.9828651838991298
N       -0.7433837902052668       -0.0734719494759433        0.1302643815247965        0.7759263489545838
N       -0.9448349916752208       -1.4194105461348421        0.1065480271854589        0.9970342621901004
O       -0.9799531026312502       -1.4177330542153901       -0.1597834416292279       -0.3970377457969525
O       -1.0488989022747803       -1.3859715922198204        0.3888266426578825       -0.3893757401670396
N        1.8510792594448569       -1.2142932791378380       -0.1570661062996278        0.1691966627363242
O        1.4679776731382250       -0.8464206405172756       -0.0899017828281458       -0.6800109224217911
O        0.3359507781497096        0.4698273671696733       -0.3098913451524240       -0.9821368279659007
N        0.2202506135441905        0.4344049108045058       -0.1863745359038866        0.8921713087406896
O        0.5525245664783298        0.5111340557638732        0.3509656167568501       -0.3335771210350215
N        0.8233255675186901       -0.1585131740974383       -0.0620753280950104        0.9988617281482304
N        2.2095275305325686        1.7472314771294901       -0.0077264388937931        0.0655379221577991
N        1.0443801952650389        1.0367692848874166        0.0359961317981514        0.9908754307264420
O        0.8951790866376920        1.1481399537906747       -0.3139579635466538       -0.6595771554465193
O        0.9761876935086721        1.1884777121489900        0.3877253152312223       -0.5578053818499882
N       -0.2424661245965000        2.2217817842940049        0.0379545265283079        0.0943160920587207

        RMSE         4.300089739E+00 kcal/mol

Coordinates in bohr
s                   x[bohr]                   y[bohr]                   z[bohr]                      q[e]
+       -4.0667370388293280        2.9125699459575927       -0.4100351140292733        0.0690680479201058
-       -3.5448573638949226       -0.5217306127917954        0.6251325173628351       -0.3117950550350966
+       -3.7246956721674183       -0.7874256551949369       -0.0261738585592158        0.5776243102962968
+       -6.2469763305297050       -1.2276726885107569       -0.1067088179741907        0.0604184539076988
-       -3.4553527144392593       -0.6625143270390706       -0.6317140172312127       -0.3968494342195521
-       -1.7531561573879260       -0.3190619932188097        0.2621353471704208       -0.9828651838991298
+       -1.4047917695927539       -0.1388418624130076        0.2461640049840140        0.7759263489545838
+       -1.7854793680153942       -2.6822971917813749        0.2013465905883526        0.9970342621901004
-       -1.8518429797657299       -2.6791271914759420       -0.3019469440623178       -0.3970377457969525
-       -1.9821316585926896       -2.6191067269601782        0.7347758649046559       -0.3893757401670396
+        3.4980328368660754       -2.2946817335546275       -0.2968119244983429        0.1691966627363242
-        2.7740757605180959       -1.5995031975122445       -0.1698897477355830       -0.6800109224217911
-        0.6348549623373931        0.8878450501955991       -0.5856097709878048       -0.9821368279659007
+        0.4162133385625726        0.8209063089744522       -0.3521968296176525        0.8921713087406896
-        1.0441201082313605        0.9659033787882095        0.6632288951228393       -0.3335771210350215
+        1.5558598346974617       -0.2995464863211742       -0.1173053692475076        0.9988617281482304
+        4.1754018993657143        3.3017889695538694       -0.0146008534343543        0.0655379221577991
+        1.9735925399030918        1.9592100037239808        0.0680228306743900        0.9908754307264420
-        1.6916433069827230        2.1696700663601813       -0.5932945660096482       -0.6595771554465193
-        1.8447273877737567        2.2458973821722950        0.7326946576938128       -0.5578053818499882
+       -0.4581945701885189        4.1985590828466899        0.0717236603599257        0.0943160920587207
