21
s                      x[A]                      y[A]                      z[A]                      q[e]
N -2.1512328689553937 1.5429983789922448 -0.2185298271761067 0.0690680479201058
O -1.8768765510898984 -0.2752296701991250 0.3318096095273393 -0.3117950550350966
N -1.9703646640085466 -0.4170364372244251 -0.0145133133874157 0.5776243102962968
N -3.3054207889978575 -0.6498280921410114 -0.0568214822200138 0.0604184539076988
O -1.8284449196808508 -0.3520342133549649 -0.3342185505300104 -0.3968494342195521
O -0.9248976108375948 -0.1718492735545384 0.1387786752910806 -0.9828651838991298
N -0.7465655738063318 -0.0697913069973107 0.1305064926694384 0.7759263489545838
N -0.9547494692238025 -1.4221913828308956 0.1196861849342626 0.9970342621901004
O -0.9756153320911243 -1.4183993490063678 -0.1648164563742958 -0.3970377457969525
O -1.0458164068481106 -1.3836124429037775 0.3825201925091611 -0.3893757401670396
N 1.8448851814262954 -1.2086294783754599 -0.1567584145520899 0.1691966627363242
O 1.4872118459938610 -0.8643189560566844 -0.0917791370047463 -0.6800109224217911
O 0.3418659976934694 0.4531423597804921 -0.3104227564568467 -0.9821368279659007
N 0.2152350657368923 0.4487595397228355 -0.1873170053252425 0.8921713087406896
O 0.5547184384681969 0.5054592640848851 0.3527327210764520 -0.3335771210350215
N 0.8101595739051610 -0.1415038275480694 -0.0609345486031106 0.9988617281482304
N 2.2160077856560108 1.7535591811790674 -0.0082455853303626 0.0655379221577991
N 1.0476379365016300 1.0639774552977892 0.0312038807664399 0.9908754307264420
O 0.8943259159594067 1.1296554134452446 -0.3142073750763971 -0.6595771554465193
O 0.9751001720115846 1.1737138277622736 0.3953942789512150 -0.5578053818499882
N -0.2437363112980900 2.2261996681697807 0.0367073036469594 0.0943160920587207
