21
s                      x[A]                      y[A]                      z[A]                      q[e]
N 2.0556565218350209 1.5417971405549755 -0.3208372154919521 0.0707249461841811
O 1.6844894079702541 -0.0014143462293456 -0.3237698643808170 -0.3496602100029151
N 1.5606518510087164 0.2985294339865855 0.1169976209193076 0.9824851761690530
N 3.1039205792190554 -0.5482506717408707 0.0223803194304770 0.1071394941056757
O 1.6154862235788974 0.2117839887331803 0.2758279147122717 -0.8194842575378962
N 0.6373578139838585 -0.3371858672683945 -0.0668624290929000 0.3116552922920345
N 0.8276284975436364 -1.8650947253634813 0.2622650297709636 0.0918298459672651
N 1.3975784804157343 -0.6891339422774621 0.0470901324009945 0.5593901217632046
O 1.0597312633196942 -0.5861044944542412 0.0148766604105771 -0.9963138680841535
N -1.3017276532711681 -0.4578703556815275 -0.1181148066834356 0.9989733053171830
O -1.3517276525809467 -0.5443753147141603 -0.1380808873269444 -0.8354521971080898
N -1.7752381946077991 -1.1985232971028617 -0.0792666043885676 0.2899344186932475
O -1.5019158490053186 -0.9255098031710913 -0.0513011782684026 -0.8678253524624289
N -0.2293449236095906 0.2927389074594877 -0.0452551692334605 0.9219570073558310
O -0.4284587436930046 0.2592926350125927 -0.2188393014697094 -0.9704818863270434
O -0.5408242729354255 0.3569056568795952 0.4395421211642760 -0.3320651923316272
N -0.8254690127734662 -0.1708650446742055 -0.0179976587127189 0.9769593393400061
O -0.7846698469797084 1.1184241199944454 -0.4876331255651633 -0.1970026432733326
O -0.8729664022951127 1.0570095301996023 0.5114107602959070 -0.1946060569702309
N -2.0899820158239195 1.6078300885598122 -0.0331520288299705 0.1283355164991325
N 0.0033838409726194 2.1894826250552248 0.1191796220333580 0.1235072004109040
