23
s                      x[A]                      y[A]                      z[A]                      q[e]
N 1.7364102870518772 1.3036579138609508 0.6250247016883829 0.2856065124296451
O 1.6888353561897225 1.1129877957321417 0.5469175500722494 -0.2980193526493612
N 2.5521189951947081 -0.5064641196705423 0.6569017481570176 0.9235469647741466
O 2.4743259229749519 -0.4533420179784263 0.6504449713450861 -0.9987019282037162
O 1.4643488250287107 -0.0820750470557924 0.2609290647371832 -0.9994297377915048
N 1.6113120431866192 -0.4598529070113731 0.2473850782377927 0.3910255639585828
N 1.9541306755140024 0.0357051360432295 0.5218578802001634 0.3788084070601841
N 1.2434973403285323 0.4395778655864553 0.2422909920441449 0.3521750120262308
N 1.1044275701535538 -0.6249206434408591 -0.2402046057990062 0.5091785922378865
N 0.6787827042930373 -0.1090137106243148 -0.4725083684199967 0.9946620798872232
O 0.8524226582178631 -0.1382683759364156 -0.3997804062487962 -0.5088390984708862
O 0.8667821659307557 -0.3838629669512225 -0.2959757487241865 -0.9513197152299744
N 0.6838558051641092 -1.8333775508254775 -0.3659127464365546 0.0534150746794947
N 0.2894410211022505 -1.7732456809080432 -0.5784069170674859 0.0449830180293293
O 0.7881252309802531 -0.3249162479510884 -0.7138490761911700 -0.1594766348608674
O -0.3933418587809996 1.2989540296882400 -0.6390356390616537 -0.2085098172073890
N -0.5219720211106590 1.1337026277509685 -0.8918372406393804 0.7433887315217406
O -0.5135669631288750 1.0590392079472177 -1.0384294152482101 -0.4563903046399361
N -0.6257828288808435 -0.1287603759770897 -0.0300845343640046 0.2740207269363132
N -1.3374262987830676 0.1289594040830518 -0.1051859350284090 0.2947455612059413
O -1.7309250158236678 -0.3127279625103115 0.3502835233897739 -0.8294346811293033
N -1.9099386089354797 -0.1392208999951909 0.2872980726005996 0.8271270632704910
O -1.9900595200597433 0.1479438728052923 0.1115324037557765 -0.6625620378342709
