23
s                      x[A]                      y[A]                      z[A]                      q[e]
N       -1.7186838501275823        1.4112170743852845       -0.3998658666935587        0.2856065124296451
O       -1.6737088814066428        1.2154900393411028       -0.3336286032481034       -0.2980193526493612
N       -2.6281309714208145       -0.3539226760136943       -0.4111003689381014        0.9235469647741466
O       -2.5473805993048373       -0.3049873188834272       -0.4107569070926707       -0.9987019282037162
O       -1.4853570396942499        0.0004315335361787       -0.1133668820526505       -0.9994297377915048
N       -1.6500175444269258       -0.3699040728025622       -0.0979982323676394        0.3910255639585828
N       -1.9918074340129064        0.1524074467907012       -0.3189236849551109        0.3788084070601841
N       -1.2364573733579876        0.5094454859424474       -0.0992860557427035        0.3521750120262308
N       -1.1064610799270909       -0.5789066559969382        0.3295379844720406        0.5091785922378865
N       -0.6330639326452481       -0.0941724422566013        0.5350287051005191        0.9946620798872232
O       -0.8143972776776941       -0.1119467061649601        0.4793661589408784       -0.5088390984708862
O       -0.8520167766225242       -0.3522263287533836        0.3691446465705925       -0.9513197152299744
N       -0.7399790693757791       -1.8106132815797062        0.3700468424201804        0.0534150746794947
N       -0.3237045145240945       -1.7784224426123019        0.5432862175289119        0.0449830180293293
O       -0.7290510794543809       -0.3138434186646544        0.7786393796723631       -0.1594766348608674
O        0.5233145330893783        1.2516681588917786        0.6401832992022344       -0.2085098172073890
N        0.6676011262893943        1.0703932254720367        0.8727411883392258        0.7433887315217406
O        0.6699254064730742        0.9904761072231468        1.0167633701218755       -0.4563903046399361
N        0.6179679659876658       -0.1604614971014105       -0.0381597105965527        0.2740207269363132
N        1.3461880994945856        0.0587780452236656       -0.0269528418663469        0.2947455612059413
O        1.6683547447258991       -0.3833014622940634       -0.5350431482153412       -0.8294346811293033
N        1.8616879342647337       -0.2214405894133801       -0.4846341219840488        0.8271270632704910
O        1.9740275197775861        0.0542381639380280       -0.3081190235963546       -0.6625620378342709

        RMSE         7.228529448E-01 kcal/mol

Coordinates in bohr
s                   x[bohr]                   y[bohr]                   z[bohr]                      q[e]
+       -3.2478417729885387        2.6668137741580353       -0.7556369749696551        0.2856065124296451
-       -3.1628513996049308        2.2969432825766454       -0.6304666877579455       -0.2980193526493612
+       -4.9664477578187736       -0.6688169272550247       -0.7768671073676819        0.9235469647741466
-       -4.8138516699907701       -0.5763425044273500       -0.7762180585452737       -0.9987019282037162
-       -2.8069180035429242        0.0008154801973280       -0.2142323587765899       -0.9994297377915048
+       -3.1180812611673345       -0.6990173902882563       -0.1851898199538150        0.3910255639585828
+       -3.7639705449353085        0.2880083339147118       -0.6026784194869547        0.3788084070601841
+       -2.3365658014495532        0.9627124442820016       -0.1876234534306490        0.3521750120262308
+       -2.0909084095405057       -1.0939750320388419        0.6227365385875313        0.5091785922378865
+       -1.1963174526048002       -0.1779601244304683        1.0110577218983230        0.9946620798872232
-       -1.5389878121292719       -0.2115486152988760        0.9058707542109475       -0.5088390984708862
-       -1.6100783621119505       -0.6656112955193668        0.6975822826973452       -0.9513197152299744
+       -1.3983577796913804       -3.4215632213021019        0.6992871857645910        0.0534150746794947
+       -0.6117128780248243       -3.3607313519049922        1.0266621588655496        0.0449830180293293
-       -1.3777068716381744       -0.5930781075535964        1.4714151780771414       -0.1594766348608674
-        0.9889211450107632        2.3653100202614938        1.2097711055842479       -0.2085098172073890
+        1.2615832897341392        2.0227500426875795        1.6492418243677458        0.7433887315217406
-        1.2659755427201231        1.8717285764613496        1.9214043039278554       -0.4563903046399361
+        1.1677902100229267       -0.3032282832026110       -0.0721114020542155        0.2740207269363132
+        2.5439268213953405        0.1110744076625026       -0.0509334894301692        0.2947455612059413
-        3.1527335476400573       -0.7243347872232802       -1.0110850154297351       -0.8294346811293033
+        3.5180803268296832       -0.4184620670512446       -0.9158257616015729        0.8271270632704910
-        3.7303713764964241        0.1024952753905562       -0.5822605686405883       -0.6625620378342709
