23
s                      x[A]                      y[A]                      z[A]                      q[e]
N       -2.1825405609865656        1.0184065444437176       -0.0669109289528118        0.2856065124296451
O       -2.0561275364695031        0.8563671199594780       -0.0399996706154888       -0.2980193526493612
N       -2.5124682307800228       -0.9179778716192853        0.2640259782080294        0.9235469647741466
O       -2.4506254725778218       -0.8461181580210673        0.2325370975759054       -0.9987019282037162
O       -1.4464475622667079       -0.2348203395381505        0.1491302419540646       -0.9994297377915048
N       -1.5240311939304374       -0.6399042086814511        0.1262063836686086        0.3910255639585828
N       -2.0529109869159825       -0.2574292183533312        0.0870147282839151        0.3788084070601841
N       -1.3881156234017304        0.2986274814281412       -0.0298670645172246        0.3521750120262308
N       -0.9202442809563818       -0.6828151410093336       -0.0361266553577009        0.5091785922378865
N       -0.6600648875300685       -0.0193042969418893       -0.0529823535700837        0.9946620798872232
O       -0.7833054937801802       -0.1322376093578999       -0.0896121722553929       -0.5088390984708862
O       -0.7192653325329119       -0.3769090482461101       -0.0045335299559064       -0.9513197152299744
N       -0.2743478828067674       -1.7481905926094394       -0.5117809033743171        0.0534150746794947
N        0.2122449183094482       -1.6202234747533695       -0.4675581055774990        0.0449830180293293
O       -0.7626193644283084       -0.0563650764641525        0.2724943335258697       -0.1594766348608674
O        0.0006145726076483        1.5478352970030560       -0.4168343391766814       -0.2085098172073890
N        0.1639160688521663        1.5137402917429317       -0.1345276221626124        0.7433887315217406
O        0.1905075741417983        1.4969318831327907        0.0273478530236071       -0.4563903046399361
N        0.6587154311116049        0.1085052834403712       -0.5316651024091510        0.2740207269363132
N        1.3417562293014809        0.0956040524182386        0.1480276518803582        0.2947455612059413
O        1.7692822296115109       -0.4759238566560809        0.3852638271313757       -0.8294346811293033
N        1.9473604659735235       -0.3080269088180608        0.3290250931687389        0.8271270632704910
O        2.0305701847301409        0.0160420532724561        0.2106707331024444       -0.6625620378342709

        RMSE         1.730974701E+01 kcal/mol

Coordinates in bohr
s                   x[bohr]                   y[bohr]                   z[bohr]                      q[e]
+       -4.1244039179676975        1.9245094533725220       -0.1264433305207810        0.2856065124296451
-       -3.8855179229396630        1.6182993195705035       -0.0755884225717969       -0.2980193526493612
+       -4.7478768550878172       -1.7347267665911357        0.4989367888192723        0.9235469647741466
-       -4.6310109792427463       -1.5989315884366659        0.4394314284273246       -0.9987019282037162
-       -2.7333897475201865       -0.4437461304141208        0.2818153143164429       -0.9994297377915048
+       -2.8800015631830336       -1.2092437009357562        0.2384955004181238        0.3910255639585828
+       -3.8794395252145462       -0.4864707193784778        0.1644340053377286        0.3788084070601841
+       -2.6231583586984297        0.5643241534344308       -0.0564405721089338        0.3521750120262308
+       -1.7390096595264284       -1.2903336108235086       -0.0682694844548584        0.5091785922378865
+       -1.2473418624629535       -0.0364798342646839       -0.1001221377296310        0.9946620798872232
-       -1.4802328558110509       -0.2498928651717100       -0.1693424630700431       -0.5088390984708862
-       -1.3592144900235561       -0.7122548753921193       -0.0085671299982220       -0.9513197152299744
+       -0.5184423616039908       -3.3036014351336607       -0.9671257436168554        0.0534150746794947
+        0.4010847671250268       -3.0617786293215041       -0.8835567672793694        0.0449830180293293
-       -1.4411417367402186       -0.1065145575577371        0.5149396611030549       -0.1594766348608674
-        0.0011613739126637        2.9249847986524515       -0.7877027407301244       -0.2085098172073890
+        0.3097564776922829        2.8605545764647728       -0.2542203621964081        0.7433887315217406
-        0.3600071399533504        2.8287912875868191        0.0516799523338912       -0.4563903046399361
+        1.2447917594138160        0.2050452688674761       -1.0047014340167844        0.2740207269363132
+        2.5355518005067927        0.1806654755543851        0.2797317210484895        0.2947455612059413
-        3.3434588526051479       -0.8993657456516425        0.7280431193240292       -0.8294346811293033
+        3.6799779482338972       -0.5820864969375058        0.6217673144921619        0.8271270632704910
-        3.8372215276602759        0.0303150871749465        0.3981099882130424       -0.6625620378342709
