23
s                      x[A]                      y[A]                      z[A]                      q[e]
N -1.7226950597426824 1.4100101181446936 -0.3996006676556207 0.2856065124296451
O -1.6702985192722937 1.2180371827718524 -0.3340629707151114 -0.2980193526493612
N -2.6318490222281703 -0.3559853611860286 -0.4133551920795119 0.9235469647741466
O -2.5484926333817057 -0.3064279773119605 -0.4099734542801464 -0.9987019282037162
O -1.4817293404796263 0.0008030128487433 -0.1112688896344354 -0.9994297377915048
N -1.6538188193427044 -0.3705294186511149 -0.1007948571167754 0.3910255639585828
N -1.9951531827673776 0.1514542404448734 -0.3204907362257561 0.3788084070601841
N -1.2414373526164024 0.5085058837859862 -0.1001031894980057 0.3521750120262308
N -1.1114756096904936 -0.5782574259368207 0.3264645357420128 0.5091785922378865
N -0.6392734996884085 -0.0926648115653772 0.5341713331523641 0.9946620798872232
O -0.8092417241342184 -0.1129039038003971 0.4819716084629354 -0.5088390984708862
O -0.8471462356211555 -0.3534091842348265 0.3728987420936136 -0.9513197152299744
N -0.7411372268410773 -1.8103153376544716 0.3678948757944580 0.0534150746794947
N -0.3247160662706465 -1.7781297529160516 0.5414884706678061 0.0449830180293293
O -0.7255169404324586 -0.3154285086631677 0.7806220918896470 -0.1594766348608674
O 0.5262947243764114 1.2529905973159967 0.6399042994039383 -0.2085098172073890
N 0.6643634003748216 1.0715515018329980 0.8740752572060461 0.7433887315217406
O 0.6740020303920589 0.9909611800868370 1.0183289950204033 -0.4563903046399361
N 0.6139355123189052 -0.1611890713644217 -0.0403722165142454 0.2740207269363132
N 1.3437087953205584 0.0583331556516253 -0.0281245486525070 0.2947455612059413
O 1.6725558416337729 -0.3838716423733156 -0.5355979040278245 -0.8294346811293033
N 1.8606440134363560 -0.2228432949904030 -0.4859636310468779 0.8271270632704910
O 1.9772494830445373 0.0548130077136815 -0.3080523683104620 -0.6625620378342709
