25
s                      x[A]                      y[A]                      z[A]                      q[e]
N 0.0675215701440926 -0.0033487009343012 0.2408902595674732 0.1158659338886357
O -0.1665484402252771 0.4421628172397142 0.3004332386116295 -0.2341991647481463
N -0.0811653172541161 -0.0063057561649441 -0.3915626216871994 0.0569852111266852
N -0.5190757586338516 -0.0327040768568563 0.1490332757745029 0.3189271149812888
O -0.2317155398942977 -0.3400754168093925 0.2653171957556238 -0.2877498234141676
N 0.0269008190609575 0.1184723552069895 -0.5564295385265446 0.5692545008206258
O -0.1558225453797251 -0.4970578842802375 0.0451078621168736 -0.2058946535748549
O -0.0610864998194545 0.1625929087720097 -0.2677495119150353 -0.9992971180892700
N -0.1911111575457519 -0.0159001181017857 0.2392345139152268 0.6691943173322236
N 0.0176990914082586 -0.0215798484362393 0.3853639172518352 0.0628076875181509
N 0.0572463049025869 0.0045106398064659 0.2903211996729926 0.7576134719858190
O 0.0370163336543892 -0.0748206930528120 -0.0561510259542357 -0.9235083265987739
N 0.1045230352083193 -0.0100026162871104 -0.4797338933068242 0.9955526175656415
O 0.0701162712618846 0.0514471197675121 0.0966977314360195 -0.9936641819349231
O -0.0405137805719096 0.1152415722884272 -0.1267416339304715 -0.9934394819660318
N -0.0297384851181169 -0.0525066931314349 0.2960962349650067 0.8475065253219278
N -0.0811808669211387 0.0198440035301306 -0.3993553526953380 0.9207393412409772
O 0.1567288218106604 -0.2548090931714461 -0.2290862372506052 -0.6738758902636315
N -0.0654606280281519 0.0235337666638854 0.2203755935964817 0.1207489421105395
N 0.2644311156751449 0.0765002846914977 -0.4874764748715704 0.4308753055723465
O 0.3484139004641800 -0.2119366216875065 -0.1276574161987056 -0.7095764258838037
N 0.4493650084446589 -0.0065434845018715 0.1029497842359254 0.9977500474782615
O 0.3047260410403546 0.1240111080116822 -0.0375667458305680 -0.9963537733476465
O -0.0314254804189172 -0.3705031684681759 -0.1423158815886268 -0.1586318904925156
N -0.0341930778654567 -0.2007286655688407 -0.0898630710359395 0.3123697133706422
