25
s                      x[A]                      y[A]                      z[A]                      q[e]
N        1.9039294911641238        1.2736522355601239        0.3580285281543516        0.1158659338886357
O        1.8204747978472551       -0.2375079373586367       -0.3956286347096396       -0.2341991647481463
N        3.2857672748589741       -0.6617350475178517        0.0735562098679983        0.0569852111266852
N        2.0843424715054728       -0.5505978872562894        0.0568574394655221        0.3189271149812888
O        1.8101659513326198       -0.4176582990688228        0.3691608589963123       -0.2877498234141676
N        1.3067071392145051       -0.9366069652134020       -0.0324247606010532        0.5692545008206258
O        0.8007936975826551       -0.5247971952561695       -0.6222820426621060       -0.2058946535748549
O        1.0838994523873653       -0.7365748377149267        0.0235748390693375       -0.9992971180892700
N        0.6655836019163227       -0.4099852498953017       -0.1333681816393309        0.6691943173322236
N        0.7896954920899212       -2.1343006166865730       -0.3717717525237379        0.0628076875181509
N       -0.5542518477456143        1.6218335707999674       -0.0549320498050308        0.7576134719858190
O       -0.5430229456631923        1.2747211729605272       -0.1332348514044210       -0.9235083265987739
N       -0.6136298931419669        0.8524774702292450       -0.0616051045070922        0.9955526175656415
O       -0.5666190396962613        1.4287394563918498       -0.0063323630769979       -0.9936641819349231
O       -0.4765395785897351       -0.2052694543049834        0.0620526225691881       -0.9934394819660318
N       -0.4913938850197944        0.2163214233787655       -0.1074911568852168        0.8475065253219278
N       -0.4461653033676948       -0.4794191388435179       -0.0336340708817913        0.9207393412409772
O       -0.6961033536169901       -0.3067499562371808       -0.2954275286487266       -0.6738758902636315
N       -2.8403317863225523       -0.0553953943198313        0.1805503279866673        0.1207489421105395
N       -1.1574236386652881       -0.7149417411369716       -0.0375476029119217        0.4308753055723465
O       -1.3877904740150366       -0.4483417795611551        0.2714307861036245       -0.7095764258838037
N       -1.5529379258628193       -0.2460246675477072        0.0781926139459099        0.9977500474782615
O       -1.5223117630953795       -0.4452117585035501       -0.0522293410177469       -0.9963537733476465
O       -1.7562008585900066       -1.8960457591341060        0.5002841329524615       -0.1586318904925156
N       -1.7742954581364150       -1.8473262265726569        0.3303619809234797        0.3123697133706422

        RMSE         5.397392381E-01 kcal/mol

Coordinates in bohr
s                   x[bohr]                   y[bohr]                   z[bohr]                      q[e]
+        3.5979053004824739        2.4068539042857338        0.6765758633124918        0.1158659338886357
-        3.4401987862295162       -0.4488249542302172       -0.7476297669900177       -0.2341991647481463
+        6.2092002614753756       -1.2504980074255618        0.1390010914772152        0.0569852111266852
+        3.9388364228052306       -1.0404792121700939        0.1074449887846341        0.3189271149812888
-        3.4207178896474750       -0.7892597992646333        0.6976129197417849       -0.2877498234141676
+        2.4693186192959096       -1.7699306514495370       -0.0612739172195259        0.5692545008206258
-        1.5132807714239185       -0.9917229704425766       -1.1759426334218444       -0.2058946535748549
-        2.0482731125458375       -1.3919247141847571        0.0445499892927910       -0.9992971180892700
+        1.2577707212175979       -0.7747598377795079       -0.2520293371486487        0.6691943173322236
+        1.4923082025585996       -4.0332436349333705       -0.7025467934513497        0.0628076875181509
+       -1.0473841967681619        3.0648212698852566       -0.1038065296415173        0.7576134719858190
-       -1.0261646471428012        2.4088739032177551       -0.2517773795204261       -0.9235083265987739
+       -1.1595924404322702        1.6109489468564022       -0.1164167754486119        0.9955526175656415
-       -1.0707548024958511        2.6999262772160941       -0.0119664319424874       -0.9936641819349231
-       -0.9005292914756864       -0.3879030505585991        0.1172624620221688       -0.9934394819660318
+       -0.9285998624121256        0.4087882452550770       -0.2031288474216803        0.8475065253219278
+       -0.8431302300467505       -0.9059708717170897       -0.0635591824508215        0.9207393412409772
-       -1.3154446933488351       -0.5796734062844460       -0.5582771190669397       -0.6738758902636315
+       -5.3674491815820291       -0.1046821238762234        0.3411906717563848        0.1207489421105395
+       -2.1872136882082560       -1.3510440864068429       -0.0709546861709748        0.4308753055723465
-       -2.6225439154077179       -0.8472431739709694        0.5129298477535748       -0.7095764258838037
+       -2.9346273697172616       -0.4649192417719789        0.1477626253914241        0.9977500474782615
-       -2.8767523098131069       -0.8413282914051801       -0.0986991502366825       -0.9963537733476465
-       -3.3187386440290045       -3.5830072060992406        0.9453999961922842       -0.1586318904925156
+       -3.3529324815215498       -3.4909406325977770        0.6242936662091002        0.3123697133706422
