21
s                      x[A]                      y[A]                      z[A]                      q[e]
N        1.8920173189359719        1.5115568167430480       -0.1117805756864167        0.0707249461841811
O        1.6269023030987446       -0.0294197330343839       -0.3130140149925637       -0.3496602100029151
N        1.4861414203913668        0.1998389090502437        0.1651543331496596        0.9824851761690530
N        3.0776141252189824       -0.5335938130184497       -0.0626868331773227        0.1071394941056757
O        1.5526055435484138        0.0977369459276607        0.3089972311280982       -0.8194842575378962
N        0.5304780436876039       -0.6542107797419388        0.1261210379217660        0.3116552922920345
N        0.8579466977529876       -2.0003676524997895        0.0192231948554339        0.0918298459672651
N        1.3057817443134769       -0.9646341882156957        0.0295297935864895        0.5593901217632046
O        1.0009128685455568       -0.7911701508088214        0.0548507123074967       -0.9963138680841535
N       -0.7590977176726207        0.8115669327841381        0.1500498564091270        0.9989733053171830
O       -0.7327211102907598        0.9065901183745584        0.1617071191706445       -0.8354521971080898
N       -0.5990459109425963        1.6716618092829907        0.0635227023542214        0.2899344186932475
O       -0.5822986067531971        1.2820282939369902        0.0518543425038714       -0.8678253524624289
N       -0.4912690542088289       -0.4660693760361946        0.1299941151784195        0.9219570073558310
O       -0.6035791969266374       -0.3006536770735488        0.2995056678990882       -0.9704818863270434
O       -0.7740857069471689       -0.3254553450124679       -0.3531268451941023       -0.3320651923316272
N       -0.6107397599098314        0.2776641477303379        0.0709652913966823        0.9769593393400061
O       -1.5006436348227750       -0.4595113105671746        0.5771818923503130       -0.1970026432733326
O       -1.4965680410034148       -0.6284861982103631       -0.3885956410177001       -0.1946060569702309
N       -2.7720932967462786       -0.0817840731121009       -0.0532909335285783        0.1283355164991325
N       -1.6356872869137487       -1.8980664718932057        0.3664691978727628        0.1235072004109040

        RMSE         4.672134476E+00 kcal/mol

Coordinates in bohr
s                   x[bohr]                   y[bohr]                   z[bohr]                      q[e]
+        3.5753945574119821        2.8564284067132086       -0.2112346741933377        0.0707249461841811
-        3.0743997857332079       -0.0555952381190699       -0.5915107617658959       -0.3496602100029151
+        2.8084002682385707        0.3776408073152364        0.3120964580854775        0.9824851761690530
+        5.8158478165043510       -1.0083461688436237       -0.1184609463774032        0.1071394941056757
-        2.9339992581740892        0.1846960601419596        0.5839201403568981       -0.8194842575378962
+        1.0024582181382242       -1.2362792020344786        0.2383342203306186        0.3116552922920345
+        1.6212842889940917       -3.7801470134495987        0.0363265735330800        0.0918298459672651
+        2.4675698763750713       -1.8228944269810039        0.0558032224197663        0.5593901217632046
-        1.8914511969974757       -1.4950949036658396        0.1036528240474478       -0.9963138680841535
+       -1.4344867888613617        1.5336392354398629        0.2835531337775229        0.9989733053171830
-       -1.3846422247909156        1.7132070317743080        0.3055821677692893       -0.8354521971080898
+       -1.1320327082569077        3.1589829939321690        0.1200405101984537        0.2899344186932475
-       -1.1003848899992108        2.4226823606288583        0.0979905057480040       -0.8678253524624289
+       -0.9283639663673821       -0.8807434761714256        0.2456532756084333        0.9219570073558310
-       -1.1405993772151219       -0.5681531082808465        0.5659836853516029       -0.9704818863270434
-       -1.4628099837615574       -0.6150214681399517       -0.6673130249637973       -0.3320651923316272
+       -1.1541308801574499        0.5247091940690015        0.1341049651530381        0.9769593393400061
-       -2.8358054817265943       -0.8683505285221557        1.0907157011155744       -0.1970026432733326
-       -2.8281037256093953       -1.1876667882477900       -0.7343393350701795       -0.1946060569702309
+       -5.2384971250679628       -0.1545494996062901       -0.1007052693389909        0.1283355164991325
+       -3.0910009991601450       -3.5868257997921571        0.6925264173957343        0.1235072004109040
