21
s                      x[A]                      y[A]                      z[A]                      q[e]
N 0.0270418658124119 -0.0464800361262235 0.3728527106049296 0.0707249461841811
O 0.1135497055749145 0.2817488184446469 0.3032215480297999 -0.3496602100029151
N 0.3627655183589252 -0.1695041338363708 0.3267100180033803 0.9824851761690530
N 0.0391851646078459 -0.0138191219091120 -0.1881385515406913 0.1071394941056757
O 0.2683795143297792 -0.3366626930099705 0.3128612321598209 -0.8194842575378962
N 0.0869134285378126 0.1271735458700095 0.2875389062548317 0.3116552922920345
N 0.0300152385723475 -0.0098800800007395 0.2503811953920016 0.0918298459672651
N 0.0705143352696224 0.0395153105987253 -0.5513030113334311 0.5593901217632046
O 0.0668792655976557 0.0579832457184976 -0.1929893731109231 -0.9963138680841535
N 0.2163483858439597 0.0855138280174993 -0.4286815194748302 0.9989733053171830
O 0.2051906715529112 0.0965595842274668 -0.3341248386918719 -0.8354521971080898
N 0.0281095699202192 0.0084458454781745 0.4242417711489921 0.2899344186932475
O 0.0412695417437287 -0.0046910077476480 0.0369667006223415 -0.8678253524624289
N -0.0061206656137212 0.0801331340014036 -0.3417766413923404 0.9219570073558310
O 0.1247000379864720 0.2375191300853207 -0.1866819073602651 -0.9704818863270434
O 0.2619533498517154 -0.4202620180584205 -0.2057540759956750 -0.3320651923316272
N 0.0828509204394592 0.0153400241871155 0.3989096737027194 0.9769593393400061
O 0.1971777853597069 -0.5113680074527698 -0.0981860025611457 -0.1970026432733326
O 0.2280364854105486 0.4920855803430386 -0.0769366733227468 -0.1946060569702309
N 0.0217004444575937 -0.0021646118414392 0.1852112970363309 0.1283355164991325
N 0.0343391766545298 0.0023281424827781 -0.1447215489779771 0.1235072004109040
