25
s                      x[A]                      y[A]                      z[A]                      q[e]
N 1.8289757093617407 1.1803683986365159 0.7746334917773137 0.1158659338886357
O 1.8371790363184624 -0.1106939464851461 -0.3292336411020768 -0.2341991647481463
N 3.3011057380613802 -0.5779806070437895 0.1118965245844995 0.0569852111266852
N 2.0963944017656853 -0.4832538480903580 0.0536858194678221 0.3189271149812888
O 1.7832156804361634 -0.4735103158086643 0.3575925206253516 -0.2877498234141676
N 1.3386444858170332 -0.8398986585347147 -0.2066056984310948 0.5692545008206258
O 0.7908394726682687 -0.4547484263528449 -0.7403832278360627 -0.2058946535748549
O 1.1246434644889809 -0.6372697737081762 -0.1173248559417052 -0.9992971180892700
N 0.6706360523083643 -0.3554771994703450 -0.2528193298960289 0.6691943173322236
N 0.8934446765564535 -1.9623727043313042 -0.8439106734450018 0.0628076875181509
N -0.6186463217644824 1.5851199803952405 -0.1049106511332026 0.7576134719858190
O -0.5955084449991239 1.2481233179004996 -0.1810833929568842 -0.9235083265987739
N -0.6426846023912713 0.8344550901984609 -0.0987588270224138 0.9955526175656415
O -0.6171579511921403 1.3951398693290942 -0.0630933476662184 -0.9936641819349231
O -0.4543432304959968 -0.1983630339386889 0.0107893097528962 -0.9934394819660318
N -0.5024524741124595 0.2110573124983557 -0.1457870561003358 0.8475065253219278
N -0.4215263175038501 -0.4736419294152008 -0.0802863521890809 0.9207393412409772
O -0.6931215078128642 -0.3121591111201037 -0.3123558048576877 -0.6738758902636315
N -2.7966935860260826 -0.1700082369495606 0.3655305756581457 0.1207489421105395
N -1.1077072835032988 -0.7476227130512318 -0.0002188829378057 0.4308753055723465
O -1.3223614778467974 -0.4859551571738653 0.3137546857588778 -0.7095764258838037
N -1.5053234529031849 -0.3018132140622336 0.1418194169105683 0.9977500474782615
O -1.4800460546824785 -0.4970300438307510 0.0175246150546934 -0.9963537733476465
O -1.5969757352850344 -1.9331773780090054 0.6113030052031192 -0.1586318904925156
N -1.6278174589530121 -1.8936493365475866 0.4373547488334784 0.3123697133706422
