21
s                      x[A]                      y[A]                      z[A]                      q[e]
N       -1.9808302484234359        1.3663014176758967       -0.9786692431572634        0.0690680479201058
O       -1.8855157830885181       -0.0614360006490219        0.3353025401455200       -0.3117950550350966
N       -1.9794515033761537       -0.3072348981408515        0.0570082913837877        0.5776243102962968
N       -3.3291708894692329       -0.4453483203895512        0.0739209745772717        0.0604184539076988
O       -1.8123558056825719       -0.4040250542334130       -0.2387313946493323       -0.3968494342195521
O       -0.8994293458449024       -0.0979362640058218        0.3571236504679494       -0.9828651838991298
N       -0.7350616134827754        0.0484723303751365        0.3325094558236863        0.7759263489545838
N       -1.0514216197582014       -1.2086116461123970        0.6441279419102393        0.9970342621901004
O       -1.0299301165144406       -1.3495531833596395        0.4026764273111374       -0.3970377457969525
O       -1.1213329072250759       -1.0945890926821391        0.8835628870805721       -0.3893757401670396
N        1.7000544999710268       -1.2926777574715529       -0.3494792714530246        0.1691966627363242
O        1.4063001734586860       -0.9712083771692805       -0.2324988528322607       -0.6800109224217911
O        0.3385469689697274        0.4291203374310920       -0.2540859611649783       -0.9821368279659007
N        0.2093720726052463        0.5111971248768452       -0.1031230182685706        0.8921713087406896
O        0.6425507721741591        0.4571503204322226        0.3767099803355825       -0.3335771210350215
N        0.7595487654895703       -0.1204431010710089       -0.0925421314156944        0.9988617281482304
N        2.3169652691803684        1.6432508156016459       -0.1253514436623144        0.0655379221577991
N        1.1147798386899270        1.0711281669403692        0.0518499951725820        0.9908754307264420
O        0.9180174761901757        1.0918884273905123       -0.2680215104574488       -0.6595771554465193
O        1.1169351352839905        1.0578550497392387        0.4250534599688344       -0.5578053818499882
N       -0.0715616597655076        2.2428959110724489        0.3855208886698689        0.0943160920587207

        RMSE         5.653383950E-01 kcal/mol

Coordinates in bohr
s                   x[bohr]                   y[bohr]                   z[bohr]                      q[e]
+       -3.7432266705428869        2.5819354842322100       -1.8494168369763206        0.0690680479201058
-       -3.5631084352654478       -0.1160972154701007        0.6336299700453615       -0.3117950550350966
+       -3.7406212200066919       -0.5805898136691418        0.1077300575956559        0.5776243102962968
+       -6.2912212059436854       -0.8415863559688981        0.1396903968779743        0.0604184539076988
-       -3.4248561146235272       -0.7634967003243963       -0.4511369534358264       -0.3968494342195521
-       -1.6996751328465565       -0.1850727167215366        0.6748658923081537       -0.9828651838991298
+       -1.3890651348195848        0.0915994290717185        0.6283518056317856        0.7759263489545838
+       -1.9868989037282596       -2.2839450031911879        1.2172253999651614        0.9970342621901004
-       -1.9462858485731631       -2.5502859082894895        0.7609481647958765       -0.3970377457969525
-       -2.1190120901188050       -2.0684736050826182        1.6696918712011020       -0.3893757401670396
+        3.2126374032973937       -2.4428069300922317       -0.6604201095707487        0.1691966627363242
-        2.6575221780207543       -1.8353178436002895       -0.4393591563360978       -0.6800109224217911
-        0.6397610519566546        0.8109199126088134       -0.4801528789255227       -0.9821368279659007
+        0.3956558755433871        0.9660225621387023       -0.1948742617581827        0.8921713087406896
-        1.2142449811106093        0.8638889037821886        0.7118786915608548       -0.3335771210350215
+        1.4353391457048823       -0.2276044747250432       -0.1748792834417894        0.9988617281482304
+        4.3784298009485711        3.1052939969223141       -0.2368798979525306        0.0655379221577991
+        2.1066285853060185        2.0241388807809697        0.0979822904824904        0.9908754307264420
-        1.7348016083834348        2.0633700873249139       -0.5064872504961094       -0.6595771554465193
-        2.1107015055879303        1.9990563244397295        0.8032346280193495       -0.5578053818499882
+       -0.1352319380400040        4.2384589998361442        0.7285288952291702        0.0943160920587207
