25
s                      x[A]                      y[A]                      z[A]                      q[e]
N -1.7136249329643489 0.7912268915952935 -1.3573905403026587 0.1158659338886357
O -1.8797315199657003 0.3088294172535819 0.1923517294540201 -0.2341991647481463
N -3.3885803456268371 -0.1872626878710831 0.0364749714550357 0.0569852111266852
N -2.1321344796496851 -0.1430344919766240 0.0904613738977694 0.3189271149812888
O -1.8413105994843653 -0.3876869664483499 -0.1985764664840469 -0.2877498234141676
N -1.3514640001103482 -0.3817696038916589 0.6490083351243141 0.5692545008206258
O -0.9446132062310263 -0.3735279134947803 -0.0247185357226204 -0.2058946535748549
O -1.0624116643324184 -0.2911151691762908 0.6072848263108738 -0.9992971180892700
N -0.6176691832632250 -0.3455346114205864 0.3565345708763166 0.6691943173322236
N -1.0762331143835540 -1.0842928932373239 1.7347648255594765 0.0628076875181509
N 1.2405291394063929 -1.1469253474518659 -0.2090054900861858 0.7576134719858190
O 1.0636679230979911 -0.9447966746341141 -0.1974624663639061 -0.9235083265987739
N 0.9030136229918285 -0.5462880876108881 -0.0878102986871931 0.9955526175656415
O 1.1672623544969494 -1.0241717460639208 -0.1517992331088970 -0.9936641819349231
O 0.3546222955681916 0.1317400254861729 0.1854884001062537 -0.9934394819660318
N 0.5262068460263969 -0.1576898340609689 0.0110160610326699 0.8475065253219278
N 0.1802754703476798 0.3129460133755131 0.1817133771017390 0.9207393412409772
O 0.4075805468437536 0.3295741386425453 -0.0904724795920365 -0.6738758902636315
N 2.3925379087641372 1.3214349990673202 -0.2583295050232371 0.1207489421105395
N 0.6103688692446010 0.8984234759303946 0.0847511654589293 0.4308753055723465
O 0.9872900505810885 0.8083023202031168 0.2140949930877171 -0.7095764258838037
N 1.1208607312996759 0.7159415572104244 -0.0023631490827657 0.9977500474782615
O 0.9779626980201461 0.8737686347297337 -0.0428923403740455 -0.9963537733476465
O 0.6683301185845776 2.1327784268454417 0.6293711048072056 -0.1586318904925156
N 0.6255223875589966 2.1535425048635286 0.4841699138240269 0.3123697133706422
