21
s                      x[A]                      y[A]                      z[A]                      q[e]
N 1.7446896130461478 0.9887789839116762 -1.3572682650646493 0.0707249461841811
O 1.5636237676070570 -0.2561214539412855 -0.3997877026650984 -0.3496602100029151
N 1.4805209169699700 0.2444982743635254 -0.1949317824268919 0.9824851761690530
N 3.0814283053485880 -0.4706141857232998 -0.0567873780804882 0.1071394941056757
O 1.5690917908379773 0.2656370927803095 -0.0292221579845112 -0.8194842575378962
N 0.5479790464694712 -0.4926906608171946 0.4447927340641474 0.3116552922920345
N 1.0124580891664048 -1.4286410852043625 1.2960319376101141 0.0918298459672651
N 1.3614928211604220 -0.7123952311861490 0.5130224304436016 0.5593901217632046
O 1.0375273267946035 -0.5741823072694260 0.4713161485183081 -0.9963138680841535
N -0.8776215218439667 0.8351150459693188 0.1543756696231934 0.9989733053171830
O -0.8683029891798785 0.9344437344499399 0.1749655296470977 -0.8354521971080898
N -0.7870792333497145 1.7095788797314548 0.1176700034300769 0.2899344186932475
O -0.7352984687803189 1.3257706678385963 0.1081186530464031 -0.8678253524624289
N -0.4900534657924344 -0.4158192768628036 0.1910025048938491 0.9219570073558310
O -0.6606881978040566 -0.2639956520823108 0.3277012741466915 -0.9704818863270434
O -0.6621529306060822 -0.2847996061304089 -0.3468552956663914 -0.3320651923316272
N -0.6628895882103975 0.3152877132558680 0.1100735664210411 0.9769593393400061
O -1.5114889814358330 -0.7296411843658805 0.3128108278509586 -0.1970026432733326
O -1.2576767522129981 -0.6289718668202331 -0.6541383767504833 -0.1946060569702309
N -2.6625154848222725 -0.3333944466058202 -0.5056944835606842 0.1283355164991325
N -1.3513748459315658 -2.0602549192711161 -0.2705632963770868 0.1235072004109040
