21
s                      x[A]                      y[A]                      z[A]                      q[e]
N        1.9744733331021302        1.4265358028277217        0.1327070500252676        0.0707249461841811
O        1.6416196333312474       -0.0750418920709009       -0.2611097261789059       -0.3496602100029151
N        1.4832154865011362        0.1259031684727333        0.2227097817388427        0.9824851761690530
N        3.0386700354382934       -0.6897860403719700        0.0281715460530190        0.1071394941056757
O        1.5263944550839044        0.0068986711241162        0.3629315937413418       -0.8194842575378962
N        0.4860481419743634       -0.6508333926983195        0.0726480859493190        0.3116552922920345
N        0.7355112725935098       -2.0111428408152641       -0.1504729711477577        0.0918298459672651
N        1.2457477119598117       -1.0065213416277219       -0.0323505723744204        0.5593901217632046
O        0.9483925032338182       -0.8148000622189843       -0.0064848173354007       -0.9963138680841535
N       -0.7192958355772037        0.8861111566701816        0.0609067305914358        0.9989733053171830
O       -0.6906125603836009        0.9826452189869147        0.0755921518370796       -0.8354521971080898
N       -0.5061052364933314        1.7358069560827138       -0.0213025300379352        0.2899344186932475
O       -0.5172642735013884        1.3485835648130353       -0.0305813110209617       -0.8678253524624289
N       -0.5298535365319006       -0.4056752561101125        0.0496984588601671        0.9219570073558310
O       -0.6407096212049190       -0.2296786948597921        0.2153909096594565       -0.9704818863270434
O       -0.7945829584844979       -0.2470594453263717       -0.4413630625060325       -0.3320651923316272
N       -0.6019888455667667        0.3437530195460610       -0.0135301981446253        0.9769593393400061
O       -1.4878522288342928       -0.5408563160644115        0.5497931928459453       -0.1970026432733326
O       -1.5472847089966868       -0.5082361236800377       -0.4526294760091669       -0.1946060569702309
N       -2.7682563710937931        0.0191295753439488        0.1063563310025382        0.1283355164991325
N       -1.7236339164578607       -1.8937149107001827        0.0504218832718097        0.1235072004109040

        RMSE         3.890634843E-01 kcal/mol

Coordinates in bohr
s                   x[bohr]                   y[bohr]                   z[bohr]                      q[e]
+        3.7312138415828922        2.6957619755045030        0.2507799794651872        0.0707249461841811
-        3.1022115091705587       -0.1418086239501680       -0.4934258711714183       -0.3496602100029151
+        2.8028710545248399        0.2379225067408424        0.4208604929469019        0.9824851761690530
+        5.7422541526136079       -1.3035067014670199        0.0532365065709284        0.1071394941056757
-        2.8844674795260197        0.0130365990541839        0.6858413144470603       -0.8194842575378962
+        0.9184978721191901       -1.2298968655023685        0.1372849859829339        0.3116552922920345
+        1.3899148673886896       -3.8005091683160788       -0.2843527047531798        0.0918298459672651
+        2.3541219970197695       -1.9020496751047697       -0.0611337217894565        0.5593901217632046
-        1.7922020905492939       -1.5397489645998785       -0.0122545287375286       -0.9963138680841535
+       -1.3592721324232602        1.6745074028192968        0.1150970400148577        0.9989733053171830
-       -1.3050685979262124        1.8569303423758015        0.1428484642061043       -0.8354521971080898
+       -0.9564002876324609        3.2801997536609333       -0.0402559475510363        0.2899344186932475
-       -0.9774878114015371        2.5484535947902431       -0.0577903023870627       -0.8678253524624289
+       -1.0012780706505564       -0.7666151299230749        0.0939164761030488        0.9219570073558310
-       -1.2107657100231244       -0.4340298301376058        0.4070298291696019       -0.9704818863270434
-       -1.5015441754917285       -0.4668746883743646       -0.8340553100297261       -0.3320651923316272
+       -1.1375940487017169        0.6495990617412070       -0.0255683689165194        0.9769593393400061
-       -2.8116332276488221       -1.0220703105857949        1.0389585601198568       -0.1970026432733326
-       -2.9239443381124519       -0.9604270808195832       -0.8553457459668100       -0.1946060569702309
+       -5.2312463864210210        0.0361496582963740        0.2009843373033369        0.1283355164991325
+       -3.2571960426556150       -3.5786025409191735        0.0952835501135239        0.1235072004109040
