21
s                      x[A]                      y[A]                      z[A]                      q[e]
N 1.8148607247052815 1.0309911406271395 -1.3476920354087947 0.0690680479201058
O 1.7597403794987452 -0.5474931937765875 -0.2544836137553966 -0.3117950550350966
N 1.9465191936814150 -0.3699751088034778 0.0284157782372362 0.5776243102962968
N 3.2970350711971803 -0.4860444360534070 -0.0413184676629325 0.0604184539076988
O 1.8569477357112156 -0.0992101193506981 0.2373301055237299 -0.3968494342195521
O 0.6727153954832077 -0.8048083334229084 0.4067935250404682 -0.9828651838991298
N 0.4565103354322638 -0.8245542992032531 0.3595215856515102 0.7759263489545838
N 1.1116956992309215 -1.0816146922417256 0.9223759016641871 0.9970342621901004
O 1.1610145545241060 -0.8934746304151382 1.1247772774834788 -0.3970377457969525
O 1.1145606656890286 -1.2822692423805468 0.7355931152246669 -0.3893757401670396
N -0.7771785466474717 1.7603982728758711 0.0122237773477563 0.1691966627363242
O -0.7171581719133756 1.3166203106617294 0.0576633665546098 -0.6800109224217911
O -0.5896964018284608 -0.4100228229347579 -0.2584568703667368 -0.9821368279659007
N -0.5398150997567028 -0.5755649221476672 -0.1283514965722072 0.8921713087406896
O -0.9108759932963314 -0.3744311082409242 0.3636151101554703 -0.3335771210350215
N -0.6546083795052855 0.2416378072275857 0.0166881818150275 0.9988617281482304
N -2.8599156724256174 -0.3290852276151494 -0.5454705294549731 0.0655379221577991
N -1.5798577115544585 -0.5552909132343804 -0.2069836446841199 0.9908754307264420
O -1.3724936904173264 -0.5923979604034626 -0.5195516969147821 -0.6595771554465193
O -1.6338768582743248 -0.6394023711046477 0.1518830231523993 -0.5578053818499882
N -1.2276897454482694 -2.2189891206012962 -0.2526935824765610 0.0943160920587207
