21
s                      x[A]                      y[A]                      z[A]                      q[e]
N -0.1227549045156941 -0.0010499150710277 0.5358714856339127 0.0690680479201058
O -0.1842524896423455 0.3564725762476686 0.2092967980327324 -0.3117950550350966
N -0.3177551244544322 0.0033052828487326 0.1469993560201883 0.5776243102962968
N -0.1750191708020190 0.0150968224448807 -0.3844922882310440 0.0604184539076988
O -0.1911914841082009 -0.3156276529504655 0.2321189727172430 -0.3968494342195521
O -0.5195116965460638 -0.0730003894387909 0.1028797405821551 -0.9828651838991298
N -0.5929717979083748 -0.0695346369086832 0.3125479772730353 0.7759263489545838
N -0.2160013453252211 -0.0052398575616948 -0.3875648269815724 0.9970342621901004
O -0.2184033398566289 -0.2858785736714299 -0.3819531670101346 -0.3970377457969525
O -0.2621809608433741 0.2642750943382208 -0.3678823564224239 -0.3893757401670396
N -0.0839486602547639 -0.1000456108639314 0.5091136895752616 0.1691966627363242
O -0.1083715943141099 -0.0551857575794672 -0.3189519628142005 -0.6800109224217911
O -0.1323606818284780 0.3428036843248853 0.4680236388678494 -0.9821368279659007
N -0.2882760167810711 0.2204834007842656 0.5549022654659259 0.8921713087406896
O 0.0553656348565170 -0.3288943509034517 0.5385731149496255 -0.3335771210350215
N 0.2651854282923850 0.0782888055652232 -0.0578745553980523 0.9988617281482304
N 1.7850599047031919 -0.0135208074851611 0.3658459073303312 0.0655379221577991
N 0.5750166832535049 -0.0204800871165477 -0.2153864800997220 0.9908754307264420
O 0.4438696236512364 0.3323259346431351 -0.2354841728733685 -0.6595771554465193
O 0.5057471115131994 -0.3855941917038597 -0.1894730105556763 -0.5578053818499882
N -0.6545409234320785 0.0103709726218911 0.9591968480284060 0.0943160920587207
