25
s                      x[A]                      y[A]                      z[A]                      q[e]
N       -2.0507366576364392        1.1371092061616346       -0.1069482309668012        0.1158659338886357
O       -1.7970520105299048       -0.4974654805314960        0.2088603514261863       -0.2341991647481463
N       -3.1158148014614744       -0.9596955020458723       -0.5828495906704675        0.0569852111266852
N       -1.9671507306129159       -0.7048659742130479       -0.3322660316866105        0.3189271149812888
O       -1.6718270973445373       -0.4935541240281045       -0.5641314045391301       -0.2877498234141676
N       -1.1158405724828451       -1.0437621115817777       -0.2369241646750401        0.5692545008206258
O       -0.8467069008144933       -0.5908195364393278        0.5429096933458051       -0.2058946535748549
O       -0.9324833259046720       -0.8011250212130182       -0.2310183713747130       -0.9992971180892700
N       -0.6128918926493424       -0.4533839148719758        0.0991465498383595        0.6691943173322236
N       -0.4994479506072038       -2.1821085676644763       -0.0690546679346766        0.0628076875181509
N        0.3367082711554548        1.7235207634427705        0.2873160570352660        0.7576134719858190
O        0.3483501747965555        1.3679271984679084        0.3609037857254205       -0.9235083265987739
N        0.4858357049550552        0.9646049628847568        0.3062342004728038        0.9955526175656415
O        0.3807364657182881        1.5277715558304461        0.2415719913372843       -0.9936641819349231
O        0.5110758914398981       -0.0989626768131183        0.1545325668314129       -0.9934394819660318
N        0.4401346066762022        0.3155782965525875        0.3250482589398080        0.8475065253219278
N        0.5019717916610424       -0.3836853824175244        0.2431174062800380        0.9207393412409772
O        0.6602927591086704       -0.1819320793436153        0.5544193535081035       -0.6738758902636315
N        2.8154027173238125        0.0258172556010149       -0.3932851824193173        0.1207489421105395
N        1.2068286919411797       -0.5281610415344181        0.4503911099614581        0.4308753055723465
O        1.4126950311448485       -0.4627992342804930       -0.1174503179592297       -0.7095764258838037
N        1.5639628921987057       -0.1790489229005601       -0.0884796530676701        0.9977500474782615
O        1.5647296475331505       -0.2680622537019151        0.1346135456943036       -0.9963537733476465
O        1.9404637587432165       -1.7553480883671517        0.4519714815606325       -0.1586318904925156
N        1.9566228820168261       -1.6249130816607651        0.5675200979159984        0.3123697133706422

        RMSE         4.133805876E+00 kcal/mol

Coordinates in bohr
s                   x[bohr]                   y[bohr]                   z[bohr]                      q[e]
+       -3.8753306383696446        2.1488249743822525       -0.2021028661294622        0.1158659338886357
-       -3.3959361331048772       -0.9400735150738005        0.3946888626623674       -0.2341991647481463
+       -5.8880366324099445       -1.8135616627004514       -1.1014260987023836        0.0569852111266852
+       -3.7173761283526816       -1.3320036464166805       -0.6278918006803864        0.3189271149812888
-       -3.1592953431002999       -0.9326821225033622       -1.0660538533488131       -0.2877498234141676
+       -2.1086330816666519       -1.9724245310191140       -0.4477217837386960        0.5692545008206258
-       -1.6000441510745780       -1.1164871134402812        1.0259506312798659       -0.2058946535748549
-       -1.7621381025158651       -1.5139068823441972       -0.4365614518475140       -0.9992971180892700
+       -1.1581978216207569       -0.8567714287959206        0.1873598254785545        0.6691943173322236
+       -0.9438198405688040       -4.1235875689009216       -0.1304944100809733        0.0628076875181509
+        0.6362864166602015        3.2569822144468246        0.5429486592430737        0.7576134719858190
-        0.6582864261208520        2.5850077646691423        0.6820093126619611       -0.9235083265987739
+        0.9180964243337890        1.8228391991096036        0.5786987691421474        0.9955526175656415
-        0.7194876461823279        2.8870698227841469        0.4565049032089383       -0.9936641819349231
-        0.9657934641456242       -0.1870123558189893        0.2920242287753788       -0.9934394819660318
+        0.8317338649541247        0.5963565516229027        0.6142521869531362        0.8475065253219278
+        0.9485892089447459       -0.7250602911106735        0.4594253142009329        0.9207393412409772
-        1.2477724773382868       -0.3438018033944963        1.0477007367837023       -0.6738758902636315
+        5.3203400686117694        0.0487875423968603       -0.7432012839732317        0.1207489421105395
+        2.2805757081133442       -0.9980797186366070        0.8511158471681168        0.4308753055723465
-        2.6696067076588803       -0.8745638038617257       -0.2219489342908851       -0.7095764258838037
+        2.9554615366344792       -0.3383534273402728       -0.1672023119734211        0.9977500474782615
-        2.9569104942218134       -0.5065642440696134        0.2543827341390366       -0.9963537733476465
-        3.6669450604011522       -3.3171271418598631        0.8541023166670084       -0.1586318904925156
+        3.6974813778157860       -3.0706407020125370        1.0724575557542471        0.3123697133706422
