25
s                      x[A]                      y[A]                      z[A]                      q[e]
N 0.0744852784191946 -0.0124058053922546 0.2421136542767810 0.1158659338886357
O -0.1643201394104523 0.4164211040843567 0.3015217890734003 -0.2341991647481463
N -0.0810979185677079 -0.0172415981395424 -0.3909346984553838 0.0569852111266852
N -0.5138636136540536 0.0013994461884352 0.1499192571116300 0.3189271149812888
O -0.2378438308634422 -0.3724268923561450 0.2662657666132796 -0.2877498234141676
N 0.0006354619873089 0.1059188260483316 -0.5528441107051535 0.5692545008206258
O -0.1461661993607143 -0.4856346187820142 0.0525911924641635 -0.2058946535748549
O -0.0397413020396050 0.1712171850463858 -0.2615889880892784 -0.9992971180892700
N -0.1995716115247441 -0.0212748361924882 0.2381111369942090 0.6691943173322236
N 0.0160321877763724 -0.0086498114278395 0.3944390510932349 0.0628076875181509
N 0.0556964217825844 0.0052789214097334 0.2741236499946301 0.7576134719858190
O 0.0312978317933739 -0.0731970225536700 -0.0646946258529428 -0.9235083265987739
N 0.0989371426890766 -0.0062761223348337 -0.4944540148852641 0.9955526175656415
O 0.0631077069628835 0.0497775350400561 0.0841822430039889 -0.9936641819349231
O -0.0443158941628772 0.1099013584575718 -0.1277333800286552 -0.9934394819660318
N -0.0335729294328290 -0.0481054455492169 0.2888773364925888 0.8475065253219278
N -0.0819450280730015 0.0212980729642739 -0.3934723973917597 0.9207393412409772
O 0.1547289936714049 -0.2500357714750744 -0.2279520149953402 -0.6738758902636315
N -0.0681100334097934 0.0222717457019445 0.2165335693139620 0.1207489421105395
N 0.2674288780877284 0.0738020892305975 -0.4850345316841877 0.4308753055723465
O 0.3528831376215043 -0.2036997065748387 -0.1320909887137955 -0.7095764258838037
N 0.4491916762787380 -0.0097592092083625 0.0936468150258195 0.9977500474782615
O 0.3112342131534316 0.1235162846387768 -0.0430526810688345 -0.9963537733476465
O -0.0224810226038283 -0.3660561969518815 -0.1425053856079931 -0.1586318904925156
N -0.0418432282425484 -0.2005903245621315 -0.0800496627453127 0.3123697133706422
