25
s                      x[A]                      y[A]                      z[A]                      q[e]
N -1.9395317811972910 1.2982315729151619 -0.7097747290948936 0.1158659338886357
O -1.8654161528030762 -0.0125386157186793 0.3888993036857488 -0.2341991647481463
N -3.3545221697951599 -0.4733303053834739 0.0451449876574979 0.0569852111266852
N -2.1510914670108199 -0.3965916932835969 0.0084350973596540 0.3189271149812888
O -1.8738150167963081 -0.3499770155423628 -0.3184039304555296 -0.2877498234141676
N -1.3720741247809616 -0.7214114870469791 0.3805223029003300 0.5692545008206258
O -0.8352096269050828 -0.6294735929946301 -0.3169805656463907 -0.2058946535748549
O -1.0667751545744126 -0.7045242622662629 0.3775195209363589 -0.9992971180892700
N -0.5782642153686567 -0.6022072836301311 0.1418424853722809 0.6691943173322236
N -0.8793707915488367 -1.8895874862207045 0.7461481928779665 0.0628076875181509
N 1.6916311886380153 -1.1164516838216463 -0.1768403395846024 0.7576134719858190
O 1.4223206781197177 -0.8773030584419316 -0.2124093687728275 -0.9235083265987739
N 1.1893177807560646 -0.5355196369519852 -0.0927287745895718 0.9955526175656415
O 1.5694246807946490 -0.9688309567068256 -0.1090381829608782 -0.9936641819349231
O 0.3659769771044845 0.1094722441323918 0.1738081333753342 -0.9934394819660318
N 0.6447713195167114 -0.1741109861752759 -0.0422298122278937 0.8475065253219278
N 0.1334088122808829 0.2809761136329180 0.1247225565608594 0.9207393412409772
O 0.3840956749303127 0.3398080218008357 -0.1923308324545992 -0.6738758902636315
N 2.1038807081628819 1.6987459554908240 -0.1081361873275102 0.1207489421105395
N 0.4465456128003694 0.9558616431083142 0.0400469306371567 0.4308753055723465
O 0.8603165318151321 0.9365259560064545 0.2588947252414495 -0.7095764258838037
N 1.0706581189062347 0.9105682341996647 0.0193006486126725 0.9977500474782615
O 0.8834795460326167 1.0314285850866796 -0.0791342652122758 -0.9963537733476465
O 0.1488666651248202 2.2081585966698567 0.6542288678085688 -0.1586318904925156
N 0.1521952152039105 2.1855340411829234 0.4825566404366222 0.3123697133706422
