25
s                      x[A]                      y[A]                      z[A]                      q[e]
N 0.0655540998384997 -0.0029009451890881 0.2428852401705233 0.1158659338886357
O -0.1707381666667384 0.4430341528316993 0.3050069934967521 -0.2341991647481463
N -0.0828800437834771 -0.0052397301270655 -0.3914530672375901 0.0569852111266852
N -0.5148298224466911 -0.0355645838202028 0.1425128535164544 0.3189271149812888
O -0.2351939204799752 -0.3373085095868568 0.2714829032250720 -0.2877498234141676
N 0.0347784143508662 0.1216874453289160 -0.5555321723537069 0.5692545008206258
O -0.1582736693624356 -0.5000429400196889 0.0439413783400931 -0.2058946535748549
O -0.0683693319655202 0.1593864933311566 -0.2701535107844298 -0.9992971180892700
N -0.1873267930390017 -0.0124716747931080 0.2406979935072883 0.6691943173322236
N 0.0173876527040222 -0.0219503811725092 0.3822373936815451 0.0628076875181509
N 0.0574618844212863 0.0063631138950826 0.2945215642158112 0.7576134719858190
O 0.0372710523750071 -0.0773256629541305 -0.0570092180277748 -0.9235083265987739
N 0.1053747408297685 -0.0075612575789115 -0.4764427853191725 0.9955526175656415
O 0.0706090166437482 0.0495035143653507 0.0963057706028977 -0.9936641819349231
O -0.0402076859744301 0.1121891682223879 -0.1253817439810303 -0.9934394819660318
N -0.0289768055733908 -0.0495826680926493 0.2971367385897791 0.8475065253219278
N -0.0811428162905255 0.0234816406224319 -0.4017261161824349 0.9207393412409772
O 0.1573603269800355 -0.2590709365547321 -0.2282088553969870 -0.6738758902636315
N -0.0644765274684620 0.0226284276033807 0.2202273471600168 0.1207489421105395
N 0.2638517974252756 0.0733604805358696 -0.4893536712848630 0.4308753055723465
O 0.3477127132571780 -0.2094084536955995 -0.1253706001804242 -0.7095764258838037
N 0.4499672560580928 -0.0097152140028901 0.1026410807365956 0.9977500474782615
O 0.3036025162573601 0.1278235805660590 -0.0351737143720787 -0.9963537733476465
O -0.0339441786095080 -0.3693399583300130 -0.1412559531920095 -0.1586318904925156
N -0.0309329473746018 -0.2031591380103907 -0.0925818240081914 0.3123697133706422
