25
s                      x[A]                      y[A]                      z[A]                      q[e]
N -1.8905806436832842 1.2749868263233075 0.3678538465710974 0.1158659338886357
O -1.7466833144882588 -0.3890239255511551 0.4497385769576139 -0.2341991647481463
N -3.2837914038581881 -0.6641297424428777 0.0921227891166078 0.0569852111266852
N -2.0758652506092465 -0.5421765506869441 0.0249687311820547 0.3189271149812888
O -1.8806464168563000 -0.2930115137413313 -0.3351780609583100 -0.2877498234141676
N -1.2954624860353543 -0.9114301439130472 -0.2760703534011503 0.5692545008206258
O -0.8520255579003116 -0.5212404430675504 0.3635334642138458 -0.2058946535748549
O -1.0476915440616461 -0.7488214091538483 -0.2825301734444306 -0.9992971180892700
N -0.6635327347083719 -0.4127595442970878 -0.1085258726579939 0.6691943173322236
N -0.7904784474382529 -2.1553836479656221 -0.3971095264054995 0.0628076875181509
N 0.5574127593803553 1.5972760480436210 -0.0582659696319327 0.7576134719858190
O 0.5174678230187710 1.2532583880560462 0.0071783318928426 -0.9235083265987739
N 0.6075383450113323 0.8255741226776998 -0.0400993790059898 0.9955526175656415
O 0.5543564204073472 1.3972313051335372 -0.1109780721393829 -0.9936641819349231
O 0.4823430095597520 -0.2006237088800523 -0.1585429735463203 -0.9934394819660318
N 0.4825438164993719 0.1991590061908582 -0.0055170820620094 0.8475065253219278
N 0.4458701101161671 -0.4783338839346775 -0.0764243231726696 0.9207393412409772
O 0.6609508031613595 -0.2989281818825049 0.2020737828128493 -0.6738758902636315
N 2.8299310609238204 -0.0585920032767101 0.2282630946750392 0.1207489421105395
N 1.1370671499937792 -0.7097039940238750 0.1116456007143450 0.4308753055723465
O 1.4266918448890524 -0.4501308359048066 -0.1416050900529310 -0.7095764258838037
N 1.5342644913480368 -0.2556682143081504 0.0648702957445694 0.9977500474782615
O 1.4861773429858109 -0.4348126745942244 0.1860627258528592 -0.9963537733476465
O 1.8287731302685550 -1.9046329528710237 -0.2269600933017234 -0.1586318904925156
N 1.8170071064934219 -1.8438980378695269 -0.0703034868991959 0.3123697133706422
