21
s                      x[A]                      y[A]                      z[A]                      q[e]
N       -1.9802772451708484        1.4269629123387475        0.0453715809872368        0.0707249461841811
O       -1.6271459472851990       -0.0991931621659338        0.2924551570278651       -0.3496602100029151
N       -1.4948570135066126        0.1392289276567040       -0.1821315399902364        0.9824851761690530
N       -3.0383860608353670       -0.6946865657023344        0.0109594220488189        0.1071394941056757
O       -1.5456929889912134        0.0313441888574176       -0.3288804058954797       -0.8194842575378962
N       -0.4810391373809046       -0.6535857530578482       -0.1262242676876581        0.3116552922920345
N       -0.7286801808563408       -2.0178070309498199       -0.0167695798238173        0.0918298459672651
N       -1.2417633150429905       -1.0122388953340291       -0.0398834054062436        0.5593901217632046
O       -0.9447116435698887       -0.8193607175617168       -0.0586405376562130       -0.9963138680841535
N        0.7188600150697330        0.8870624334403052       -0.0842707339145049        0.9989733053171830
O        0.6901617025079000        0.9835681227091801       -0.0999171724652146       -0.8354521971080898
N        0.5009549543057525        1.7360460940909164       -0.0066026989434799        0.2899344186932475
O        0.5131498088225473        1.3490138713093796        0.0023907200200795       -0.8678253524624289
N        0.5330346292543291       -0.4047469287252037       -0.0785301546587452        0.9219570073558310
O        0.6472931074214294       -0.2281917123510584       -0.2418386761480741       -0.9704818863270434
O        0.7852406177362369       -0.2455726469776189        0.4186829354430541       -0.3320651923316272
N        0.6013517834190309        0.3449692955568595       -0.0130024850045328        0.9769593393400061
O        1.5211174366060192       -0.5398454805668046       -0.5143278440376687       -0.1970026432733326
O        1.5223929087408410       -0.5025657241973210        0.4897963078143259       -0.1946060569702309
N        2.7728306844457098        0.0246054888260593        0.0001570159438257        0.1283355164991325
N        1.7299031339880975       -1.8900271766734222        0.0044538376383284        0.1235072004109040

        RMSE         3.856810531E-01 kcal/mol

Coordinates in bohr
s                   x[bohr]                   y[bohr]                   z[bohr]                      q[e]
+       -3.7421816458490089        2.6965690955059198        0.0857398619449071        0.0707249461841811
-       -3.0748602065176667       -0.1874479100117401        0.5526601507604283       -0.3496602100029151
+       -2.8248703522473115        0.2631045420123515       -0.3441787293894169        0.9824851761690530
+       -5.7417175183874907       -1.3127673522122774        0.0207103061655716        0.1071394941056757
-       -2.9209364232336954        0.0592319325651462       -0.6214938951718627       -0.8194842575378962
+       -0.9090322252763927       -1.2350980727804444       -0.2385292963161499        0.3116552922920345
+       -1.3770059748675623       -3.8131026625183670       -0.0316899131060180        0.0918298459672651
+       -2.3465925780718591       -1.9128542857172868       -0.0753687131684045        0.5593901217632046
-       -1.7852462738782224       -1.5483673541502490       -0.1108145560198393       -0.9963138680841535
+        1.3584485510242825        1.6763050553843406       -0.1592486074897450        0.9989733053171830
-        1.3042166000196320        1.8586743776510486       -0.1888160911893916       -0.8354521971080898
+        0.9466676648291131        3.2806516590026238       -0.0124772926920268        0.2899344186932475
-        0.9697126000056576        2.5492667562183389        0.0045178060805993       -0.8678253524624289
+        1.0072894646756332       -0.7648608454108349       -0.1484004848948746        0.9219570073558310
-        1.2232066959230556       -0.4312198404427528       -0.4570088644631506       -0.9704818863270434
-        1.4838897101068105       -0.4640650466914388        0.7911960813901127       -0.3320651923316272
+        1.1363901757176005        0.6518974902945804       -0.0245711356089393        0.9769593393400061
-        2.8744953598438361       -1.0201601083374270       -0.9719387639283819       -0.1970026432733326
-        2.8769056528593024       -0.9497115787753110        0.9255808790295159       -0.1946060569702309
+        5.2398905858681690        0.0464976350642649        0.0002967171311608        0.1283355164991325
+        3.2690431468086816       -3.5716337335850641        0.0084165333436966        0.1235072004109040
