25
s                      x[A]                      y[A]                      z[A]                      q[e]
N 0.0881418781471273 -0.0111581501624630 0.2215121803296966 0.1158659338886357
O -0.1624888840828724 0.4111083487870680 0.3181958882037068 -0.2341991647481463
N -0.0881928551234494 -0.0149496532301004 -0.3937290010860883 0.0569852111266852
N -0.4835708389080132 0.0168734940703052 0.1397790480180480 0.3189271149812888
O -0.2416192892188154 -0.3881709581760009 0.2918408105550623 -0.2877498234141676
N -0.0259840993047051 0.0682627608274470 -0.5180918628887223 0.5692545008206258
O -0.1609691022526790 -0.4361735389304932 0.0713435753496937 -0.2058946535748549
O -0.0343726802431970 0.1864279753093177 -0.2231750924344282 -0.9992971180892700
N -0.1817987762591105 -0.0225560561656370 0.2638345140566529 0.6691943173322236
N 0.0290956258007041 0.0157971819807859 0.4445986135040235 0.0628076875181509
N 0.0162527754109978 0.0037284012615716 0.1574018353771112 0.7576134719858190
O -0.0155452840160271 -0.0484469398701701 -0.1413888780101685 -0.9235083265987739
N 0.0496847679270200 0.0029564430746438 -0.5719786316147578 0.9955526175656415
O 0.0150976318994867 0.0465631844265500 -0.0166637497086379 -0.9936641819349231
O -0.0732618647465255 0.0863701006428180 -0.1216126601154182 -0.9934394819660318
N -0.0600915888700866 -0.0282509295981647 0.2610218766953285 0.8475065253219278
N -0.1051960348827395 0.0275996234828803 -0.3678535511107701 0.9207393412409772
O 0.1383746648468589 -0.2128836043468967 -0.2155703653055281 -0.6738758902636315
N -0.0593608022430374 0.0248774371237384 0.2197930617263532 0.1207489421105395
N 0.2917153843666799 0.0591201578303467 -0.4965766581314881 0.4308753055723465
O 0.3736248099753193 -0.1784129107883608 -0.1590584942579287 -0.7095764258838037
N 0.4775740176397231 -0.0069023291077672 0.0366059050212860 0.9977500474782615
O 0.3387514663999840 0.1021606628819364 -0.0879487061800142 -0.9963537733476465
O -0.0153959409713329 -0.3498376235927201 -0.0850249950228704 -0.1586318904925156
N -0.0277405473475776 -0.1856054614084846 -0.0618685842032054 0.3123697133706422
