25
s                      x[A]                      y[A]                      z[A]                      q[e]
N       -1.7425486176014731        1.0768926839032433       -0.9541580865279500        0.1158659338886357
O       -1.8488499746753961       -0.0378218255658637        0.3714778084526229       -0.2341991647481463
N       -3.3328366945387802       -0.5061019761046496       -0.1022921489716812        0.0569852111266852
N       -2.0627526883073202       -0.4330541234090427       -0.0481834468449962        0.3189271149812888
O       -1.7866798498856040       -0.4637669814775774       -0.3618414844089982       -0.2877498234141676
N       -1.3171726289617203       -0.6979395439695949        0.3173702420885279        0.5692545008206258
O       -0.7879051904134331       -0.4382890772836445        0.7147482116783473       -0.2058946535748549
O       -1.0393896356981045       -0.5827191922136126        0.2077497796614393       -0.9992971180892700
N       -0.6124097430060605       -0.3285801866946697        0.3320751585503957        0.6691943173322236
N       -0.9513224545523108       -1.9506971431007951        1.1106769136532604        0.0628076875181509
N        0.6183206713023710        1.3081714581198491        0.1184736549853518        0.7576134719858190
O        0.5728406729279285        1.0661174762281271        0.1690158017974782       -0.9235083265987739
N        0.5948169613355577        0.6376022496610024        0.1103865135733052        0.9955526175656415
O        0.5936688164318269        1.1693183693142106        0.1046086445687951       -0.9936641819349231
O        0.3980810310631608       -0.2145765503844917        0.0505368750926116       -0.9934394819660318
N        0.4571593616419717        0.1300428759190107        0.1569290764092801        0.8475065253219278
N        0.3537454051134143       -0.4547838829070165        0.1114375796937134        0.9207393412409772
O        0.6458985141219653       -0.3280854581607212        0.2597559494660514       -0.6738758902636315
N        2.7748961702879829       -0.2279168023289648       -0.4448781097674692        0.1207489421105395
N        1.0148763633362701       -0.7528508638219388       -0.0208236354618934        0.4308753055723465
O        1.2252165675313555       -0.5207373046814588       -0.2676719589916904       -0.7095764258838037
N        1.3426337307973273       -0.3333641201124380       -0.1366457980867516        0.9977500474782615
O        1.3316280634616191       -0.5335264885175780       -0.0423117540466534       -0.9963537733476465
O        1.4888563045831746       -1.8593060823693703       -0.6094154174745761       -0.1586318904925156
N        1.5161555920640419       -1.8957826554901449       -0.4364128633102989        0.3123697133706422

        RMSE         5.112522035E-01 kcal/mol

Coordinates in bohr
s                   x[bohr]                   y[bohr]                   z[bohr]                      q[e]
+       -3.2929396475619264        2.0350322390863576       -1.8030974639287181        0.1158659338886357
-       -3.4938200991961401       -0.0714728918843214        0.7019913196607404       -0.2341991647481463
+       -6.2981485735544442       -0.9563941263907898       -0.1933041463410102        0.0569852111266852
+       -3.8980376454527108       -0.8183536907433064       -0.0910535183175979        0.3189271149812888
-       -3.3763355901578964       -0.8763925810228946       -0.6837813063621252       -0.2877498234141676
+       -2.4890955286869332       -1.3189145902294661        0.5997428379175668        0.5692545008206258
-       -1.4889250227080892       -0.8282463198457082        1.3506783687328350       -0.2058946535748549
-       -1.9641617491088026       -1.1011796813317456        0.3925901861843292       -0.9992971180892700
+       -1.1572866908434671       -0.6209265631047280        0.6275311027282332        0.6691943173322236
+       -1.7977388961021692       -3.6862833541735203        2.0988751806734345        0.0628076875181509
+        1.1684567264707129        2.4720857809873400        0.2238827610042963        0.7576134719858190
-        1.0825119853567493        2.0146700476354571        0.3193935762718967       -0.9235083265987739
+        1.1240411517012423        1.2048936288350809        0.2086002785976800        0.9955526175656415
-        1.1218714722808509        2.2096914714708089        0.1976816885903843       -0.9936641819349231
-        0.7522641244492443       -0.4054909131721920        0.0955008531615071       -0.9934394819660318
+        0.8639059891924572        0.2457454200538252        0.2965529755345844        0.8475065253219278
+        0.6684819338034822       -0.8594169849665430        0.2105865057049990        0.9207393412409772
-        1.2205712965306699       -0.6199916616691161        0.4908676039491006       -0.6738758902636315
+        5.2437937884260757       -0.4307003357918524       -0.8406977866718819        0.1207489421105395
+        1.9178383779061807       -1.4226819459378113       -0.0393509679593500        0.4308753055723465
-        2.3153237570077678       -0.9840508891570459       -0.5058266939590739       -0.7095764258838037
+        2.5372100380086220       -0.6299668870667355       -0.2582231345785699        0.9977500474782615
-        2.5164123409162364       -1.0082189439754432       -0.0799576270359069       -0.9963537733476465
-        2.8135306558234228       -3.5135792790760436       -1.1516282356584955       -0.1586318904925156
+        2.8651188325824015       -3.5825100122695441       -0.8247007892833279        0.3123697133706422
