25
s                      x[A]                      y[A]                      z[A]                      q[e]
N 0.0989871104513258 -0.0346349055319755 0.2068056140181857 0.1158659338886357
O -0.2112353154229003 0.4879436486877092 0.3532958803956621 -0.2341991647481463
N -0.0993109570075074 -0.0204057580955447 -0.4086328795278006 0.0569852111266852
N -0.4654248927758464 -0.0351906775064950 0.1573132619226095 0.3189271149812888
O -0.2074289669386527 -0.3513696569547969 0.2608582865628103 -0.2877498234141676
N -0.0193456933012565 0.0710465194880049 -0.4769471684962097 0.5692545008206258
O -0.1179994362418153 -0.4004874913393799 0.0476170668801789 -0.2058946535748549
O -0.0217487392278342 0.1339004753685373 -0.1633897397478137 -0.9992971180892700
N -0.1488694107514190 -0.0520594509528818 0.2989180389718008 0.6691943173322236
N 0.0363126643495131 -0.0991284903578551 0.5084404531019409 0.0628076875181509
N -0.0024111203257875 0.0076601462801501 -0.0085395152501406 0.7576134719858190
O -0.0397207522203546 -0.0421945648035592 -0.2533759206049928 -0.9235083265987739
N 0.0236858635649047 0.0000609534414535 -0.6846840933141134 0.9955526175656415
O -0.0170360871893999 0.0218786846304141 -0.1493657936479401 -0.9936641819349231
O -0.0961157335650415 0.0718118997103154 -0.1379886442444515 -0.9934394819660318
N -0.0837232812234894 -0.0382691647562135 0.2116407110197588 0.8475065253219278
N -0.1338048912377331 0.0103945394676433 -0.3801189212089567 0.9207393412409772
O 0.1214279184910237 -0.1799340634073727 -0.2292004633015385 -0.6738758902636315
N -0.0341277773868029 0.0142691594814398 0.2369512150321478 0.1207489421105395
N 0.3107850723564829 0.0535262575045787 -0.5296774334365358 0.4308753055723465
O 0.3888880882544763 -0.1535400937362250 -0.1964586066391841 -0.7095764258838037
N 0.5255463783442067 -0.0110101820221782 -0.0338317221624037 0.9977500474782615
O 0.3682227237284629 0.0923641270518654 -0.1483811839128508 -0.9963537733476465
O -0.0192418162865989 -0.3375571076169036 -0.0147150916453083 -0.1586318904925156
N -0.0084153488195061 -0.1620450902266480 -0.0366554751446073 0.3123697133706422
