25
s                      x[A]                      y[A]                      z[A]                      q[e]
N       -1.9321202620592366        1.2937722985117128        0.0035609919239338        0.1158659338886357
O       -1.7783818488088450       -0.3333065656005476        0.4396749467548954       -0.2341991647481463
N       -3.2845178213476909       -0.6810986259559818        0.0061319504106452        0.0569852111266852
N       -2.0889116588535885       -0.5498040839097534       -0.0325467396516513        0.3189271149812888
O       -1.8401131912982405       -0.3731552851623472       -0.3392075296284321       -0.2877498234141676
N       -1.2763951573690084       -0.9794486249311166       -0.1150750312683592        0.5692545008206258
O       -0.8272168071956905       -0.5349622079448868        0.4968078237439725       -0.2058946535748549
O       -1.0791721491388933       -0.7408333770336694       -0.1664268747127665       -0.9992971180892700
N       -0.6516353507942403       -0.4371648585074903        0.0181964351891999        0.6691943173322236
N       -0.7587048021060594       -2.1675599709173126       -0.0207976121870989        0.0628076875181509
N        0.5445926550436456        1.6273972708738584       -0.0047008664489384        0.7576134719858190
O        0.5074892291183426        1.2773994106173339        0.0753614213404060       -0.9235083265987739
N        0.6114082244142706        0.8567815930278335        0.0097793542410016        0.9955526175656415
O        0.5343600814730549        1.4314460441603800       -0.0515331107750164       -0.9936641819349231
O        0.4801105327398777       -0.1954158608883964       -0.1158134834293062       -0.9934394819660318
N        0.4914833440868165        0.2145119001779270        0.0526046033388892        0.8475065253219278
N        0.4570678461072791       -0.4893567065164332       -0.0201045839542019        0.9207393412409772
O        0.6831224700445857       -0.2945296284644095        0.2565960211695725       -0.6738758902636315
N        2.8513227416634650       -0.0217315177147441        0.0223337988527873        0.1207489421105395
N        1.1632998138884223       -0.7093617995763750        0.0755549898803144        0.4308753055723465
O        1.1010348125273623       -1.1089491368431335       -0.4842988591474721       -0.7095764258838037
N        1.5671699358638020       -0.2287618474508381       -0.0120021673624932        0.9977500474782615
O        1.5213398789205217       -0.4287396305494282        0.1302411356836077       -0.9963537733476465
O        1.8345098710963257       -1.8843201819015161       -0.3695017830678830       -0.1586318904925156
N        1.8266368728589746       -1.8368393584190061       -0.2035759517888918        0.3123697133706422

        RMSE         7.102727886E+00 kcal/mol

Coordinates in bohr
s                   x[bohr]                   y[bohr]                   z[bohr]                      q[e]
+       -3.6511781367397647        2.4448753128912077        0.0067292994712021        0.1158659338886357
-       -3.3606546407340678       -0.6298581248019781        0.8308652335920055       -0.2341991647481463
+       -6.2068391365325590       -1.2870898674824480        0.0115877068910081        0.0569852111266852
+       -3.9474709355090765       -1.0389791412476690       -0.0615044242181996        0.3189271149812888
-       -3.4773099713958633       -0.7051612912239533       -0.6410093306908584       -0.2877498234141676
+       -2.4120372752880712       -1.8508896550760765       -0.2174602929756949        0.5692545008206258
-       -1.5632132119755073       -1.0109320604860559        0.9388307238608328       -0.2058946535748549
-       -2.0393398040942383       -1.3999721871916744       -0.3145012131230115       -0.9992971180892700
+       -1.2314123466677525       -0.8261218542536792        0.0343862789672312        0.6691943173322236
+       -1.4337442860501319       -4.0960947055390555       -0.0393017910971010        0.0628076875181509
+        1.0291309679684200        3.0753351392691002       -0.0088833501408472        0.7576134719858190
-        0.9590156546533856        2.4139350388880074        0.1424124467586004       -0.9235083265987739
+        1.1553940949954298        1.6190825601560737        0.0184803011993275        0.9955526175656415
-        1.0097942063614054        2.7050409868331302       -0.0973834657576608       -0.9936641819349231
-        0.9072774168260228       -0.3692824576496354       -0.2188557653166372       -0.9934394819660318
+        0.9287689155482364        0.4053687419878303        0.0994082932488451        0.8475065253219278
+        0.8637330498956635       -0.9247501529721028       -0.0379921575397155        0.9207393412409772
-        1.2909143785305361       -0.5565803336305822        0.4848962048926711       -0.6738758902636315
+        5.3882190770334919       -0.0410666167714015        0.0422047631728323        0.1207489421105395
+        2.1983180500451809       -1.3404995250612557        0.1427782382855320        0.4308753055723465
-        2.0806542502715186       -2.0956101556963773       -0.9151922066603988       -0.7095764258838037
+        2.9615219708338958       -0.4322972396358471       -0.0226808092270207        0.9977500474782615
-        2.8749157148969591       -0.8102004808683916        0.2461200767106112       -0.9963537733476465
-        3.4667212308209994       -3.5608490764667420       -0.6982571728666295       -0.1586318904925156
+        3.4518434203661936       -3.4711233238735915       -0.3847027946104121        0.3123697133706422
