21
s                      x[A]                      y[A]                      z[A]                      q[e]
N -1.8680074783131650 1.5283826455591571 0.1439413186585053 0.0707249461841811
O -1.6273382242903549 -0.0246283282854031 0.2893256779952618 -0.3496602100029151
N -1.4819153908763256 0.2241362020022403 -0.1662655849420553 0.9824851761690530
N -3.0819896186679792 -0.5025605607589139 -0.0003020274876818 0.1071394941056757
O -1.5403100127083522 0.1267365926763290 -0.3252748466943929 -0.8194842575378962
N -0.5312609156011049 -0.6464673952982939 -0.1655326883737362 0.3116552922920345
N -0.8835127908513962 -1.9910288371483640 -0.1135695041474648 0.0918298459672651
N -1.3167486752864404 -0.9482444839861059 -0.0867017363887970 0.5593901217632046
O -1.0055445736208608 -0.7783962642013296 -0.1001954139867332 -0.9963138680841535
N 0.7855224841870923 0.7852739283049277 -0.0686650259537988 0.9989733053171830
O 0.7649944284213234 0.8844818266934916 -0.0795636788452748 -0.8354521971080898
N 0.6287314138240168 1.6534541195266454 0.0726645931333636 0.2899344186932475
O 0.6200423428077062 1.2576393335113341 0.0410047704457829 -0.8678253524624289
N 0.4929750606991589 -0.4842329733050327 -0.1200869335597434 0.9219570073558310
O 0.6201276005890405 -0.3106312792067981 -0.2759184877692270 -0.9704818863270434
O 0.7613762421666037 -0.3704636474028678 0.3802055163518180 -0.3320651923316272
N 0.6240786882761677 0.2527207941320552 -0.0212842167941380 0.9769593393400061
O 1.5073030867830051 -0.4380788268497845 -0.6462910238446042 -0.1970026432733326
O 1.4749117092625132 -0.6912808957982982 0.4311807017833611 -0.1946060569702309
N 2.7757213293937713 -0.0524844462312537 -0.0041397205573498 0.1283355164991325
N 1.6607351321249086 -1.8809224224945191 -0.4750122156879600 0.1235072004109040
