25
s                      x[A]                      y[A]                      z[A]                      q[e]
N       -2.3460246922584083       -0.2579340578807994       -0.4759463157106258        0.1158659338886357
O       -1.2373552854621117        1.0401053445563408       -0.4535484716127083       -0.2341991647481463
N       -2.3759943690245016        2.1337972374662848       -0.1569934573367871        0.0569852111266852
N       -1.4935720294454453        1.3325860844195172        0.0085925228528725        0.3189271149812888
O       -1.4560021154772220        1.0156173388079450        0.2979877774672228       -0.2877498234141676
N       -0.6287995820418727        1.2017634907701018        0.2979430232267641        0.5692545008206258
O       -0.3319914615494575        0.6370493930029248       -0.3769044930890646       -0.2058946535748549
O       -0.5967777862197993        0.9003247061020272        0.3231775150983307       -0.9992971180892700
N       -0.3821979051731977        0.4244611273036361        0.0950799112720421        0.6691943173322236
N        0.4588745384250338        1.8718446043953012        0.5597919587155940        0.0628076875181509
N       -0.5644058800097899       -1.9479188033911192       -0.0648476668378410        0.7576134719858190
O       -0.3615605564333471       -1.6466593893066694       -0.0745436100285959       -0.9235083265987739
N       -0.0862784314465004       -1.3588086458645865        0.0864581335427555        0.9955526175656415
O       -0.4563381764193183       -1.7962820099809449        0.0227674464067295       -0.9936641819349231
O        0.3576573347259098       -0.4584640298599069        0.3918551895211789       -0.9934394819660318
N        0.1659303056283549       -0.7870427917784757        0.1444097828804393        0.8475065253219278
N        0.5234863283826877       -0.2137421771400056        0.3517411375725784        0.9207393412409772
O        0.6693789406528472       -0.4834807450070821        0.0897577849091354       -0.6738758902636315
N        2.8542186505968381        0.1788315481820594       -0.4301433968471368        0.1207489421105395
N        1.2259751471697931       -0.4592613868866027        0.4347389165314307        0.4308753055723465
O        1.4782710620562107       -0.2739774357810694        0.0042428118711939       -0.7095764258838037
N        1.6098213245740678        0.0106583976976323       -0.0726498090468406        0.9977500474782615
O        1.6087850903132248        0.0104022275068642        0.1675446890236481       -0.9963537733476465
O        2.0610012105097004       -1.2287557312746560        1.0238794068023513       -0.1586318904925156
N        2.0651377139419500       -1.0640943457127954        1.0830013860089869        0.3123697133706422

        RMSE         4.037099377E+00 kcal/mol

Coordinates in bohr
s                   x[bohr]                   y[bohr]                   z[bohr]                      q[e]
+       -4.4333441519298757       -0.4874247278226983       -0.8994081871137691        0.1158659338886357
-       -2.3382626094110814        1.9655142428364334       -0.8570823959680030       -0.2341991647481463
+       -4.4899786330862881        4.0322923860697797       -0.2966746378552755        0.0569852111266852
+       -2.8224420842961266        2.5182227381491127        0.0162375149186666        0.3189271149812888
-       -2.7514452363391722        1.9192386186133283        0.5631152881469245       -0.2877498234141676
+       -1.1882589978614899        2.2710038651296589        0.5630307148895046        0.5692545008206258
-       -0.6273729383189379        1.2038488811646784       -0.7122462673928448       -0.2058946535748549
-       -1.1277465737124412        1.7013671185161416        0.6107169934418573       -0.9992971180892700
+       -0.7222493665010453        0.8021152815069622        0.1796749923369902        0.6691943173322236
+        0.8671472035691884        3.5372736517230736        1.0578534892060678        0.0628076875181509
+       -1.0665725368165160       -3.6810330530387487       -0.1225443301984534        0.7576134719858190
-       -0.6832504294271654       -3.1117352677032457       -0.1408670073569778       -0.9235083265987739
+       -0.1630426059679740       -2.5677761975882833        0.1633821937140668        0.9955526175656415
-       -0.8623541740233693       -3.3944810429508907        0.0430242382847577       -0.9936641819349231
-        0.6758744093931671       -0.8663714548089440        0.7404989890344004       -0.9934394819660318
+        0.3135628335511044       -1.4872953254770511        0.2728949394808587        0.8475065253219278
+        0.9892457910647607       -0.4039141762537035        0.6646944170691576        0.9207393412409772
-        1.2649428719829705       -0.9136461949956974        0.1696176311060175       -0.6738758902636315
+        5.3936915518018331        0.3379426486557080       -0.8128532147152088        0.1207489421105395
+        2.3167572647687638       -0.8678782412136082        0.8215374883226747        0.4308753055723465
-        2.7935274464759119       -0.5177423181814312        0.0080177524383977       -0.7095764258838037
+        3.0421214143667421        0.0201414525847353       -0.1372882421653371        0.9977500474782615
-        3.0401632154119325        0.0196573610826773        0.3166135760296953       -0.9963537733476465
-        3.8947278321003900       -2.3220118071957558        1.9348516643526668       -0.1586318904925156
+        3.9025446907043579       -2.0108468850454235        2.0465760130482207        0.3123697133706422
