21
s                      x[A]                      y[A]                      z[A]                      q[e]
N 0.0260185013021179 -0.0450238857655147 0.3759610473677386 0.0707249461841811
O 0.1034756664467476 0.2916114928008832 0.3034704888770220 -0.3496602100029151
N 0.3753067135953759 -0.1814058144171752 0.3286233754735854 0.9824851761690530
N 0.0397505152520725 -0.0113371957550606 -0.1892058667478204 0.1071394941056757
O 0.2565324825898099 -0.3285028073691167 0.3150026370113415 -0.8194842575378962
N 0.0955117884048397 0.1258991779391174 0.2906976764981608 0.3116552922920345
N 0.0306052487548688 -0.0147739728349372 0.2469589514238633 0.0918298459672651
N 0.0829647985493415 0.0396809654179548 -0.5510981865999141 0.5593901217632046
O 0.0549553784794873 0.0585359960314287 -0.1993459423613505 -0.9963138680841535
N 0.2259800233397745 0.0819091296200063 -0.4264758314200480 0.9989733053171830
O 0.2003155638056725 0.1023296453355238 -0.3304399935060490 -0.8354521971080898
N 0.0340880647266785 0.0046078212693520 0.4298159170980025 0.2899344186932475
O 0.0346908372084682 -0.0000206196822258 0.0402721752169021 -0.8678253524624289
N 0.0013765508840292 0.0777662134006266 -0.3472926554590312 0.9219570073558310
O 0.1206338115146407 0.2436312628931006 -0.1821464995457463 -0.9704818863270434
O 0.2577666490016473 -0.4177010870138243 -0.2017958820205991 -0.3320651923316272
N 0.0922218133777536 0.0110312801913147 0.3963027607025442 0.9769593393400061
O 0.1980633475094491 -0.5152088782711260 -0.1020829295029941 -0.1970026432733326
O 0.2303280733002595 0.4891151249815567 -0.0735878638866363 -0.1946060569702309
N 0.0218705760452865 0.0002844019729030 0.1837248190215777 0.1283355164991325
N 0.0363216108826602 0.0041601983846304 -0.1432158243528413 0.1235072004109040
