21
s                      x[A]                      y[A]                      z[A]                      q[e]
N 1.7008163432206498 0.5874806509006401 -1.6431873390641138 0.0707249461841811
O 1.5985616972021015 -0.3218433229773517 -0.3615303056620596 -0.3496602100029151
N 1.4505989722424342 0.2012973217265856 -0.3095586142604791 0.9824851761690530
N 3.1077041270862886 -0.3291211167110201 0.0285987699149286 0.1071394941056757
O 1.5494786713777338 0.2862232039590223 -0.1719331535757684 -0.8194842575378962
N 0.5742700806996951 -0.3837970214828916 0.4976384683472608 0.3116552922920345
N 1.0827300449536004 -0.9501376747428703 1.6248787462402998 0.0918298459672651
N 1.3998319394606447 -0.5280252825352404 0.6153546878193141 0.5593901217632046
O 1.0649659546046772 -0.4345959086329525 0.5520664156227992 -0.9963138680841535
N -0.9439682555016780 0.8080388390746776 0.1012758937177158 0.9989733053171830
O -0.9450095210607660 0.9066508176564172 0.1252161851808355 -0.8354521971080898
N -0.9238957075156808 1.6874889203946637 0.0543906943813262 0.2899344186932475
O -0.8411892923244902 1.3068226532367779 0.0587443794112594 -0.8678253524624289
N -0.4590519199596101 -0.4031851778245756 0.1828214413986620 0.9219570073558310
O -0.6477479688437151 -0.2719031636790032 0.3099654367999495 -0.9704818863270434
O -0.6093598500210337 -0.2996372699990119 -0.3640591636874378 -0.3320651923316272
N -0.6851879446993853 0.3064706616667041 0.0784584031363993 0.9769593393400061
O -1.4457290009770249 -0.7994982724115480 0.3346074941635467 -0.1970026432733326
O -1.1998959445416717 -0.7109928649162846 -0.6360894647335548 -0.1946060569702309
N -2.6232204889082382 -0.5267701658849390 -0.5063824698204977 0.1283355164991325
N -1.1783520319102767 -2.1237273335190334 -0.1988246013512678 0.1235072004109040
