21
s                      x[A]                      y[A]                      z[A]                      q[e]
N        1.7008163432206496        0.5874806509006401       -1.6431873390641138        0.0707249461841811
O        1.5985616972021015       -0.3218433229773517       -0.3615303056620596       -0.3496602100029151
N        1.4505989722424342        0.2012973217265856       -0.3095586142604791        0.9824851761690530
N        3.1077041270862886       -0.3291211167110201        0.0285987699149286        0.1071394941056757
O        1.5494786713777338        0.2862232039590222       -0.1719331535757684       -0.8194842575378962
N        0.5742700806996951       -0.3837970214828916        0.4976384683472607        0.3116552922920345
N        1.0827300449536001       -0.9501376747428703        1.6248787462402998        0.0918298459672651
N        1.3998319394606447       -0.5280252825352404        0.6153546878193141        0.5593901217632046
O        1.0649659546046772       -0.4345959086329525        0.5520664156227992       -0.9963138680841535
N       -0.9439682555016780        0.8080388390746776        0.1012758937177158        0.9989733053171830
O       -0.9450095210607659        0.9066508176564172        0.1252161851808355       -0.8354521971080898
N       -0.9238957075156808        1.6874889203946637        0.0543906943813262        0.2899344186932475
O       -0.8411892923244902        1.3068226532367779        0.0587443794112594       -0.8678253524624289
N       -0.4590519199596101       -0.4031851778245756        0.1828214413986620        0.9219570073558310
O       -0.6477479688437151       -0.2719031636790032        0.3099654367999495       -0.9704818863270434
O       -0.6093598500210337       -0.2996372699990119       -0.3640591636874378       -0.3320651923316272
N       -0.6851879446993853        0.3064706616667041        0.0784584031363993        0.9769593393400061
O       -1.4457290009770249       -0.7994982724115480        0.3346074941635467       -0.1970026432733326
O       -1.1998959445416715       -0.7109928649162846       -0.6360894647335548       -0.1946060569702309
N       -2.6232204889082382       -0.5267701658849390       -0.5063824698204977        0.1283355164991325
N       -1.1783520319102767       -2.1237273335190334       -0.1988246013512678        0.1235072004109040

        RMSE         9.933021642E-01 kcal/mol

Coordinates in bohr
s                   x[bohr]                   y[bohr]                   z[bohr]                      q[e]
+        3.2140770783897099        1.1101775342079094       -3.1051740436509863        0.0707249461841811
-        3.0208438023590172       -0.6081957357344632       -0.6831932637543482       -0.3496602100029151
+        2.7412347754088029        0.3803968078514185       -0.5849810007285495        0.9824851761690530
+        5.8727096791480742       -0.6219487726886697        0.0540438426641979        0.1071394941056757
-        2.9280903261421880        0.5408834662336088       -0.3249065721444825       -0.8194842575378962
+        1.0852131745669891       -0.7252712583691195        0.9404004146686371        0.3116552922920345
+        2.0460632527669471       -1.7954999867433543        3.0705758174714552        0.0918298459672651
+        2.6452989872490811       -0.9978231713090948        1.1628518299951038        0.5593901217632046
-        2.0124939871395942       -0.8212672425607737        1.0432543285902633       -0.9963138680841535
+       -1.7838414740243711        1.5269721045840319        0.1913837022374579        0.9989733053171830
-       -1.7858091807549190        1.7133217367930331        0.2366242964663902       -0.8354521971080898
+       -1.7459098556907264        3.1888918992904212        0.1027835161541844        0.2899344186932475
-       -1.5896173821609714        2.4695369091616555        0.1110107884972638       -0.8678253524624289
+       -0.8674824060892510       -0.7619095639324607        0.3454824541049089        0.9219570073558310
-       -1.2240662594362117       -0.5138225119988483        0.5857497839098118       -0.9704818863270434
-       -1.1515232283898111       -0.5662323772779939       -0.6879721128324791       -0.3320651923316272
+       -1.2948175599471818        0.5791456160379177        0.1482648941685562        0.9769593393400061
-       -2.7320318634783298       -1.5108327726345019        0.6323165234948319       -0.1970026432733326
-       -2.2674747142312941       -1.3435817918464115       -1.2020348796354843       -0.1946060569702309
+       -4.9571682907261545       -0.9954513445845231       -0.9569241826936548        0.1283355164991325
+       -2.2267626196871664       -4.0132630254998078       -0.3757240435572286        0.1235072004109040
