21
s                      x[A]                      y[A]                      z[A]                      q[e]
N -1.8318231298199681 1.1635309262004887 -1.2946767336500165 0.0707249461841811
O -1.6946372650670236 0.2949577751602228 0.0469890321446652 -0.3496602100029151
N -1.4872958258811164 0.1336639961936638 -0.4331899265418060 0.9824851761690530
N -3.1393977634246464 -0.2495143466990634 0.0938406743429254 0.1071394941056757
O -1.5346336097308830 -0.0454844745820980 -0.4709205845354711 -0.8194842575378962
N -0.6204949125453569 -0.1755806502701123 0.4463756892381143 0.3116552922920345
N -0.9948765575364830 -1.3082412646920538 1.2894957476624278 0.0918298459672651
N -1.4298850272780061 -0.3984992352665331 0.5462908636611991 0.5593901217632046
O -1.0843971550675195 -0.3503880367221262 0.4821273247464452 -0.9963138680841535
N 1.2171979487290439 -0.5881145113585186 -0.0814359020591959 0.9989733053171830
O 1.2559705550410871 -0.6823366327129274 -0.0806427490318105 -0.8354521971080898
N 1.5327153824446311 -1.3830521386584860 -0.2883443671802628 0.2899344186932475
O 1.3110872902052404 -1.0720866081817690 -0.2234986647920583 -0.8678253524624289
N 0.3023132599881357 0.3175468937473003 0.1959294755852456 0.9219570073558310
O 0.5341556579901875 0.2406908887796748 0.3019420901275171 -0.9704818863270434
O 0.4699818196848382 0.3782507382506020 -0.3557656095082578 -0.3320651923316272
N 0.7822567460050718 -0.2230057831105270 -0.0242808324545395 0.9769593393400061
O 1.0959844335685749 0.9679003709146600 0.5744877637115446 -0.1970026432733326
O 0.8894079770785797 1.0685511011519466 -0.4037005195567444 -0.1946060569702309
N 2.2867744882707353 1.3666133913221241 -0.1872867098341604 0.1283355164991325
N 0.3515564954454372 2.2113499153236940 0.3783631285401033 0.1235072004109040
