21
s                      x[A]                      y[A]                      z[A]                      q[e]
N       -1.8318231298199681        1.1635309262004887       -1.2946767336500165        0.0707249461841811
O       -1.6946372650670236        0.2949577751602228        0.0469890321446652       -0.3496602100029151
N       -1.4872958258811164        0.1336639961936638       -0.4331899265418060        0.9824851761690530
N       -3.1393977634246464       -0.2495143466990634        0.0938406743429254        0.1071394941056757
O       -1.5346336097308830       -0.0454844745820980       -0.4709205845354711       -0.8194842575378962
N       -0.6204949125453569       -0.1755806502701123        0.4463756892381143        0.3116552922920345
N       -0.9948765575364830       -1.3082412646920538        1.2894957476624278        0.0918298459672651
N       -1.4298850272780061       -0.3984992352665331        0.5462908636611991        0.5593901217632046
O       -1.0843971550675195       -0.3503880367221262        0.4821273247464452       -0.9963138680841535
N        1.2171979487290439       -0.5881145113585186       -0.0814359020591959        0.9989733053171830
O        1.2559705550410871       -0.6823366327129274       -0.0806427490318105       -0.8354521971080898
N        1.5327153824446311       -1.3830521386584860       -0.2883443671802628        0.2899344186932475
O        1.3110872902052404       -1.0720866081817690       -0.2234986647920583       -0.8678253524624289
N        0.3023132599881357        0.3175468937473002        0.1959294755852456        0.9219570073558310
O        0.5341556579901875        0.2406908887796748        0.3019420901275171       -0.9704818863270434
O        0.4699818196848382        0.3782507382506020       -0.3557656095082578       -0.3320651923316272
N        0.7822567460050718       -0.2230057831105270       -0.0242808324545395        0.9769593393400061
O        1.0959844335685749        0.9679003709146600        0.5744877637115446       -0.1970026432733326
O        0.8894079770785797        1.0685511011519466       -0.4037005195567444       -0.1946060569702309
N        2.2867744882707353        1.3666133913221241       -0.1872867098341604        0.1283355164991325
N        0.3515564954454372        2.2113499153236940        0.3783631285401033        0.1235072004109040

        RMSE         1.525653136E+00 kcal/mol

Coordinates in bohr
s                   x[bohr]                   y[bohr]                   z[bohr]                      q[e]
+       -3.4616440256387206        2.1987547890192078       -2.4465844476008423        0.0707249461841811
-       -3.2024003129715570        0.5573894136271891        0.0887964016537515       -0.3496602100029151
+       -2.8105817784519229        0.2525883456402622       -0.8186103214712083        0.9824851761690530
+       -5.9326019717474283       -0.4715137796337623        0.1773331739364062        0.1071394941056757
-       -2.9000372253141022       -0.0859531999205131       -0.8899109316125514       -0.8194842575378962
+       -1.1725654469506313       -0.3317993419403053        0.8435278017225093        0.3116552922920345
+       -1.8800442223822400       -2.4722176962905640        2.4367938030244649        0.0918298459672651
+       -2.7020910924482275       -0.7530544158581330        1.0323401171594884        0.5593901217632046
-       -2.0492136343032352       -0.6621374270416788        0.9110886013704480       -0.9963138680841535
+        2.3001707635669524       -1.1113753568750571       -0.1538915516714874        0.9989733053171830
-        2.3734403706669114       -1.2894293611945415       -0.1523927096741513       -0.8354521971080898
+        2.8964123010967060       -2.6135897592932635       -0.5448918837891473        0.2899344186932475
-        2.4775959050565519       -2.0259500722345591       -0.4223512658624942       -0.8678253524624289
+        0.5712892654719047        0.6000766611722543        0.3702530487606903        0.9219570073558310
-        1.0094079019651738        0.4548398606866159        0.5705878560893113       -0.9704818863270434
-        0.8881369231486489        0.7147903020458732       -0.6722995668271827       -0.3320651923316272
+        1.4782510097414128       -0.4214198544721449       -0.0458841234372076        0.9769593393400061
-        2.0711104172096353        1.8290666177577550        1.0856245358415495       -0.1970026432733326
-        1.6807374904759891        2.0192689322335640       -0.7628834186672788       -0.1946060569702309
+        4.3213774935156639        2.5825250289819404       -0.3539205885246525        0.1283355164991325
+        0.6643454940176386        4.1788457075161407        0.7150026889121915        0.1235072004109040
