11

C  1.80391 -0.53644  0.00138
C  0.48369  0.16925 -0.00414
H  1.92554 -1.08692  0.93911
H  2.60541  0.19488 -0.09863
H  1.85011 -1.26041 -0.81593
O -0.55926 -0.71385 -0.00527
O  0.31514  1.38932 -0.00032
C -1.91029 -0.15587  0.00338
H -2.06285  0.43811  0.90630
H -2.56743 -1.02178 -0.01252
H -2.06166  0.47077 -0.87730
