23
s                      x[A]                      y[A]                      z[A]                      q[e]
N 1.4848681089680971 0.9578905148442065 -0.7307892736676963 0.2856065124296451
O 1.4412829853118487 0.7457976214321439 -0.6338241645161662 -0.2980193526493612
N 2.5338362327458279 -0.5222970313226550 0.0970698655417778 0.9235469647741466
O 2.4461493963814571 -0.4746921698874596 0.0930267441509805 -0.9987019282037162
O 1.3295534324852509 -0.2849230374747105 0.0263804846261303 -0.9994297377915048
N 1.5209362752420461 -0.6156435062900824 0.1803410226495161 0.3910255639585828
N 1.8638451863886782 -0.1083644763436113 -0.0902819370859567 0.3788084070601841
N 1.0457787604464044 0.1303220962671773 -0.2396539514390464 0.3521750120262308
N 0.8194510626517764 -1.0765254766694141 0.4435118402545867 0.5091785922378865
N 0.1208542223955832 -1.0514022070294180 0.3780796323987048 0.9946620798872232
O 0.2672003260103335 -1.1373175522441563 0.3214009131041510 -0.5088390984708862
O 0.4897385297539214 -0.9905050394270014 0.3537960477922267 -0.9513197152299744
N 0.6425215649148980 -1.9583691342929261 0.9358912970969659 0.0534150746794947
N 0.1912118038387618 -1.9702049577842280 0.9369329203826537 0.0449830180293293
O 0.2303865915721822 -1.0853486443830362 0.6879005827634253 -0.1594766348608674
O -1.5653375324898013 -0.9590177089284417 -0.0830135124010826 -0.2085098172073890
N -1.6006045983516728 -0.8180897706528858 0.2017051735807269 0.7433887315217406
O -1.6085775995937848 -0.8028204476436088 0.3648549997026348 -0.4563903046399361
N -0.4492944523598767 0.1483305772339412 -0.0164948854856973 0.2740207269363132
N -1.0819146869297385 0.5601864774017967 -0.0866245466884848 0.2947455612059413
O -0.8466095650258139 1.2384012437553253 -0.2574363368358552 -0.8294346811293033
N -1.0827877522420946 1.2667487146034955 -0.2972030383930138 0.8271270632704910
O -1.4143547971202719 1.1376129244647317 -0.2840195493676690 -0.6625620378342709
