11

C -1.60215 -0.77874  0.16691
C -0.51260  0.20328 -0.13318
H -1.67740 -1.52833 -0.62443
H -2.55382 -0.26320  0.29470
H -1.34465 -1.30420  1.09351
O  0.66272 -0.41522 -0.52555
O -0.58493  1.41700  0.02926
C  1.86318 -0.17720  0.27421
H  2.02176  0.89391  0.41765
H  2.68136 -0.61075 -0.29568
H  1.75985 -0.68568  1.23690
