21
s                      x[A]                      y[A]                      z[A]                      q[e]
N       -2.0073546401274007        1.3870241525918359       -0.1884948126801110        0.0707249461841811
O       -1.6371449124845721       -0.0894245262707747        0.2607264906573987       -0.3496602100029151
N       -1.4902597067987078        0.0926526992269397       -0.2340973246626565        0.9824851761690530
N       -3.0271264697792866       -0.7443322555197204        0.0158828219357921        0.1071394941056757
O       -1.5340922586037127       -0.0329420699681222       -0.3684971173218601       -0.8194842575378962
N       -0.4588243606902020       -0.6802762809181643       -0.0750623830224144        0.3116552922920345
N       -0.6972130790507776       -2.0150021555651572        0.2165838972470199        0.0918298459672651
N       -1.2043953616827483       -1.0633075859890355        0.0353866878582905        0.5593901217632046
O       -0.9144447153016646       -0.8609746148783201        0.0073954667224393       -0.9963138680841535
N        0.6922660451914847        0.8943962879154512       -0.0677416018776683        0.9989733053171830
O        0.6603758644444776        0.9901049590943081       -0.0820461073769557       -0.8354521971080898
N        0.4534655558015424        1.7367049839388242        0.0204546683669163        0.2899344186932475
O        0.4767573866518670        1.3501420747685910        0.0275360101919471       -0.8678253524624289
N        0.5428824840648179       -0.4009091379885638       -0.0607985109399954        0.9219570073558310
O        0.6466282665208442       -0.2207409596878992       -0.2271495181609329       -0.9704818863270434
O        0.8070698292755369       -0.2361873394961554        0.4283200281653164       -0.3320651923316272
N        0.5923966271978369        0.3502320817075910        0.0053130893915938        0.9769593393400061
O        1.5164275126479676       -0.5037843837295306       -0.5485451141958634       -0.1970026432733326
O        1.5616742606612766       -0.4760161936500095        0.4548682496829269       -0.1946060569702309
N        2.7735647290533043        0.0911856868768003       -0.0842980421821448        0.1283355164991325
N        1.7858128630885328       -1.8521662963064032       -0.0541782015073342        0.1235072004109040

        RMSE         2.037849399E+00 kcal/mol

Coordinates in bohr
s                   x[bohr]                   y[bohr]                   z[bohr]                      q[e]
+       -3.7933505065077457        2.6210957777937973       -0.3562035720348853        0.0707249461841811
-       -3.0937555122824656       -0.1689878635505728        0.4927016609942227       -0.3496602100029151
+       -2.8161827016546410        0.1750882263233343       -0.4423798303148052        0.9824851761690530
+       -5.7204399750068449       -1.4065841092765674        0.0300141835580610        0.1071394941056757
-       -2.8990142199460425       -0.0622514902454202       -0.6963586297590174       -0.8194842575378962
+       -0.8670523813927604       -1.2855358605803437       -0.1418473462365786        0.3116552922920345
+       -1.3175417704931482       -3.8078022162253164        0.4092842489811673        0.0918298459672651
+       -2.2759773803521197       -2.0093601246409767        0.0668711485392329        0.5593901217632046
-       -1.7280500687924014       -1.6270062230915536        0.0139754066753475       -0.9963138680841535
+        1.3081932313657181        1.6901640317863298       -0.1280130748485928        0.9989733053171830
-        1.2479295236625265        1.8710272081458683       -0.1550446726023514       -0.8354521971080898
+        0.8569257077934292        3.2818967803620138        0.0386537212005375        0.2899344186932475
-        0.9009408890610323        2.5513987517700429        0.0520355178505955       -0.8678253524624289
+        1.0258992131907294       -0.7576084719917665       -0.1148925345122429        0.9219570073558310
-        1.2219503287039466       -0.4171399584808564       -0.4292503788538723       -0.9704818863270434
-        1.5251409414507713       -0.4463293859482624        0.8094075472808312       -0.3320651923316272
+        1.1194673830488537        0.6618427147763154        0.0100402838301876        0.9769593393400061
-        2.8656326880138954       -0.9520145115313656       -1.0366000332881709       -0.1970026432733326
-        2.9511366498266525       -0.8995402372814157        0.8595764150671014       -0.1946060569702309
+        5.2412777291403918        0.1723159747589066       -0.1593002126365451        0.1283355164991325
+        3.3746972225570442       -3.5000870388226750       -0.1023819628187281        0.1235072004109040
