21
s                      x[A]                      y[A]                      z[A]                      q[e]
N -2.0073546401274007 1.3870241525918359 -0.1884948126801110 0.0707249461841811
O -1.6371449124845721 -0.0894245262707747 0.2607264906573987 -0.3496602100029151
N -1.4902597067987078 0.0926526992269397 -0.2340973246626565 0.9824851761690530
N -3.0271264697792866 -0.7443322555197205 0.0158828219357921 0.1071394941056757
O -1.5340922586037127 -0.0329420699681222 -0.3684971173218601 -0.8194842575378962
N -0.4588243606902020 -0.6802762809181643 -0.0750623830224144 0.3116552922920345
N -0.6972130790507776 -2.0150021555651572 0.2165838972470199 0.0918298459672651
N -1.2043953616827485 -1.0633075859890355 0.0353866878582905 0.5593901217632046
O -0.9144447153016646 -0.8609746148783202 0.0073954667224393 -0.9963138680841535
N 0.6922660451914847 0.8943962879154512 -0.0677416018776683 0.9989733053171830
O 0.6603758644444776 0.9901049590943081 -0.0820461073769557 -0.8354521971080898
N 0.4534655558015424 1.7367049839388242 0.0204546683669163 0.2899344186932475
O 0.4767573866518670 1.3501420747685910 0.0275360101919471 -0.8678253524624289
N 0.5428824840648179 -0.4009091379885638 -0.0607985109399954 0.9219570073558310
O 0.6466282665208442 -0.2207409596878992 -0.2271495181609329 -0.9704818863270434
O 0.8070698292755369 -0.2361873394961554 0.4283200281653164 -0.3320651923316272
N 0.5923966271978369 0.3502320817075910 0.0053130893915938 0.9769593393400061
O 1.5164275126479676 -0.5037843837295306 -0.5485451141958634 -0.1970026432733326
O 1.5616742606612766 -0.4760161936500095 0.4548682496829269 -0.1946060569702309
N 2.7735647290533043 0.0911856868768003 -0.0842980421821448 0.1283355164991325
N 1.7858128630885328 -1.8521662963064032 -0.0541782015073342 0.1235072004109040
