11

C  1.40736 -0.97886  0.12434
C  0.53236  0.21511 -0.10720
H  0.92194 -1.65676  0.83484
H  2.37701 -0.66903  0.51328
H  1.53779 -1.52948 -0.81202
O -0.71928 -0.11370 -0.62476
O  0.83830  1.37655  0.12413
C -1.84294 -0.17821  0.30493
H -1.68918 -0.98438  1.03029
H -2.71402 -0.39189 -0.30978
H -1.96644  0.78041  0.81598
