21
s                      x[A]                      y[A]                      z[A]                      q[e]
N -2.0207030125451149 1.3681562153137072 -0.2276313084662879 0.0707249461841811
O -1.6331428281924958 -0.0898090067432509 0.2618987672113557 -0.3496602100029151
N -1.4941778979154274 0.0770109604421399 -0.2404477177071612 0.9824851761690530
N -3.0192232120991003 -0.7652093996625831 0.0478697367448231 0.1071394941056757
O -1.5382851300333023 -0.0534835809172635 -0.3699739919720142 -0.8194842575378962
N -0.4479843120298435 -0.6925486807506229 -0.0762568498987616 0.3116552922920345
N -0.6750147157281405 -2.0060334971870817 0.2709635245863787 0.0918298459672651
N -1.1880358175441894 -1.0849973545007405 0.0379265945171549 0.5593901217632046
O -0.9008115973797830 -0.8790077451158892 0.0084919889353558 -0.9963138680841535
N 0.6814229060106556 0.8961244385880598 -0.0747980602122441 0.9989733053171830
O 0.6482439797715086 0.9913955825516803 -0.0889237008552808 -0.8354521971080898
N 0.4324261866901385 1.7353063137827940 0.0146816727259915 0.2899344186932475
O 0.4606078934151923 1.3489913202717450 0.0215908394309777 -0.8678253524624289
N 0.5487170440159981 -0.4008084279172980 -0.0673357375978560 0.9219570073558310
O 0.6493005420980771 -0.2193638923029307 -0.2341110916963164 -0.9704818863270434
O 0.8132157280465645 -0.2328506400941298 0.4204203707053766 -0.3320651923316272
N 0.5889592815864693 0.3508355062165633 -0.0013720514494220 0.9769593393400061
O 1.5268864113889191 -0.4919586256114688 -0.5438645137177950 -0.1970026432733326
O 1.5641957503616399 -0.4611600964409848 0.4597316138673434 -0.1946060569702309
N 2.7722314034007014 0.1210656249507097 -0.0717539156385589 0.1283355164991325
N 1.8109914738490422 -1.8353686417234600 -0.0441133367950741 0.1235072004109040
