21
s                      x[A]                      y[A]                      z[A]                      q[e]
N       -1.8651276368156553        1.3024714762083407        0.8198948704600257        0.0707249461841811
O       -1.5688126408655101       -0.1621706270930488        0.3855315897428097       -0.3496602100029151
N       -1.4972697149872316        0.1943667734930100        0.0215961984922453        0.9824851761690530
N       -3.0417878466922801       -0.6304986161375369        0.1238107956999295        0.1071394941056757
O       -1.5908095758156973        0.1847187814830893       -0.1490431647770735       -0.8194842575378962
N       -0.5125850315337016       -0.5861500730968791       -0.3406535794515883        0.3116552922920345
N       -0.8540411099662303       -1.8526741497546906       -0.7454146480142114        0.0918298459672651
N       -1.3008426650606411       -0.8855497077255188       -0.3386147871202966        0.5593901217632046
O       -0.9728497290239057       -0.7457251165258123       -0.3229007743518997       -0.9963138680841535
N        0.7752496322048980        0.8652555567076315       -0.1639186109981134        0.9989733053171830
O        0.7656327799914810        0.9619207968734353       -0.1797170698194767       -0.8354521971080898
N        0.6043606531214367        1.7240639729209370       -0.1116852872866640        0.2899344186932475
O        0.6023911612732301        1.3379827834902935       -0.0985255519200862       -0.8678253524624289
N        0.5168239843490788       -0.4048494957677431       -0.1790916237825013        0.9219570073558310
O        0.6660992110464486       -0.2519303897768572       -0.3243454549849261       -0.9704818863270434
O        0.7290170866736184       -0.2709785768988993        0.3447382109839702       -0.3320651923316272
N        0.6194378043094101        0.3335176595074046       -0.1072755977789047        0.9769593393400061
O        1.5657098799012030       -0.6209438233976361       -0.3596089575227306       -0.1970026432733326
O        1.3617188697643108       -0.5504646430497967        0.6210563123486614       -0.1946060569702309
N        2.7189206721248689       -0.1053781616078963        0.3895422798121199        0.1283355164991325
N        1.5870692775756543       -1.9560408858170013        0.2170732326566722        0.1235072004109040

        RMSE         6.447751128E-01 kcal/mol

Coordinates in bohr
s                   x[bohr]                   y[bohr]                   z[bohr]                      q[e]
+       -3.5245804226039636        2.4613143762545255        1.5493767568371724        0.0707249461841811
-       -2.9646262333920435       -0.3064580707996134        0.7285491173262768       -0.3496602100029151
+       -2.8294296972681678        0.3672999697906851        0.0408109005013690        0.9824851761690530
+       -5.7481459619945126       -1.1914697069801101        0.2339684952478785        0.1071394941056757
-       -3.0061944160474088        0.3490679072313296       -0.2816507623001517       -0.8194842575378962
+       -0.9686453256078605       -1.1076631065701881       -0.6437419688203904        0.3116552922920345
+       -1.6139037977181874       -3.5010467427518077       -1.4086295346514066        0.0918298459672651
+       -2.4582363692752804       -1.6734464180804567       -0.6398892096875655        0.5593901217632046
-       -1.8384195490810433       -1.4092162351089108       -0.6101940292233480       -0.9963138680841535
+        1.4650094837291681        1.6350960307079687       -0.3097612816518938        0.9989733053171830
-        1.4468362668568073        1.8177668604729436       -0.3396160420285937       -0.8354521971080898
+        1.1420761154023351        3.2580087315893125       -0.2110546052148720        0.2899344186932475
-        1.1383543152029028        2.5284210213743927       -0.1861863094885386       -0.8678253524624289
+        0.9766557854876620       -0.7650546690307326       -0.3384341203124572        0.9219570073558310
-        1.2587450812613217       -0.4760794393581007       -0.6129240799585208       -0.9704818863270434
-        1.3776426345922905       -0.5120752962052331        0.6514608037400014       -0.3320651923316272
+        1.1705678018997259        0.6302570344726909       -0.2027214997469021        0.9769593393400061
-        2.9587628649367419       -1.1734137655161847       -0.6795624419793584       -0.1970026432733326
-        2.5732757237225239       -1.0402274171120187        1.1736263388257626       -0.1946060569702309
+        5.1380154271617222       -0.1991358650431588        0.7361282231313664        0.1283355164991325
+        2.9991262767461957       -3.6963815643920599        0.4102089588888988        0.1235072004109040
