21
s                      x[A]                      y[A]                      z[A]                      q[e]
N 2.1127058461602202 1.5734516985203624 -0.8407922968949895 0.0690680479201058
O 1.8920008861675091 -0.2711203242715030 -0.3660186795678012 -0.3117950550350966
N 2.0382444990642679 -0.2131966449007184 -0.0171795834721095 0.5776243102962968
N 3.3823058526300320 -0.3686068246605744 0.0320819642092557 0.0604184539076988
O 1.9200853480889140 -0.0301093138042713 0.2612074959238319 -0.3968494342195521
O 0.5693665112496019 -0.9593086274410207 0.2036574009830801 -0.9828651838991298
N 0.3499144472618434 -0.9477648331013093 0.1708442963817271 0.7759263489545838
N 1.1021308842691679 -1.1572085080790446 0.4502170217442691 0.9970342621901004
O 1.1229603728091204 -1.0549851451024603 0.7108160734578270 -0.3970377457969525
O 1.1312455840902420 -1.2783974769387456 0.2060371005480715 -0.3893757401670396
N -0.5574073954960204 1.7885176990372511 0.0779709410208401 0.1691966627363242
O -0.5473626433967469 1.3391676260521397 0.0826214602131300 -0.6800109224217911
O -0.6578031731388618 -0.3714364031020778 -0.3523029707992025 -0.9821368279659007
N -0.6213184884641534 -0.5483840025512062 -0.2332309168495753 0.8921713087406896
O -0.9315800210355187 -0.3281674785123617 0.2915686676519388 -0.3335771210350215
N -0.6212537631944781 0.2681922617902106 -0.0455143576297586 0.9988617281482304
N -2.9467759433520504 0.0256953141616667 -0.2829769603056070 0.0655379221577991
N -1.6811280664236288 -0.3932824046942822 -0.1258870488669250 0.9908754307264420
O -1.5254654910375862 -0.4507359860116008 -0.4643302584383951 -0.6595771554465193
O -1.6982160701182236 -0.4793272705411897 0.2361659472988463 -0.5578053818499882
N -1.5925142087949400 -2.0880888794728305 -0.2362876287874645 0.0943160920587207
