21
s                      x[A]                      y[A]                      z[A]                      q[e]
N -0.1227549045156942 -0.0010499150710282 0.5358714856339133 0.0690680479201058
O -0.1842524896423455 0.3564725762476688 0.2092967980327317 -0.3117950550350966
N -0.3177551244544316 0.0033052828487327 0.1469993560201879 0.5776243102962968
N -0.1750191708020197 0.0150968224448805 -0.3844922882310457 0.0604184539076988
O -0.1911914841082011 -0.3156276529504652 0.2321189727172424 -0.3968494342195521
O -0.5195116965460639 -0.0730003894387912 0.1028797405821546 -0.9828651838991298
N -0.5929717979083754 -0.0695346369086832 0.3125479772730352 0.7759263489545838
N -0.2160013453252211 -0.0052398575616950 -0.3875648269815716 0.9970342621901004
O -0.2184033398566292 -0.2858785736714295 -0.3819531670101344 -0.3970377457969525
O -0.2621809608433734 0.2642750943382209 -0.3678823564224231 -0.3893757401670396
N -0.0839486602547650 -0.1000456108639315 0.5091136895752606 0.1691966627363242
O -0.1083715943141112 -0.0551857575794672 -0.3189519628142000 -0.6800109224217911
O -0.1323606818284781 0.3428036843248853 0.4680236388678495 -0.9821368279659007
N -0.2882760167810715 0.2204834007842656 0.5549022654659264 0.8921713087406896
O 0.0553656348565171 -0.3288943509034520 0.5385731149496262 -0.3335771210350215
N 0.2651854282923855 0.0782888055652231 -0.0578745553980522 0.9988617281482304
N 1.7850599047031954 -0.0135208074851612 0.3658459073303322 0.0655379221577991
N 0.5750166832535062 -0.0204800871165476 -0.2153864800997216 0.9908754307264420
O 0.4438696236512368 0.3323259346431355 -0.2354841728733686 -0.6595771554465193
O 0.5057471115132000 -0.3855941917038603 -0.1894730105556757 -0.5578053818499882
N -0.6545409234320784 0.0103709726218912 0.9591968480284075 0.0943160920587207
