25
s                      x[A]                      y[A]                      z[A]                      q[e]
N 1.7580543930110766 0.8286734626128971 -1.4073913202788595 0.1158659338886357
O 1.7916066593227757 -0.4056049458315700 -0.2641373090990120 -0.2341991647481463
N 3.3773069937762594 -0.1812058560602203 0.0376715513237532 0.0569852111266852
N 2.1742285047153942 -0.1361268257781805 0.1176327369952400 0.3189271149812888
O 1.9335193405061992 0.2127599631661811 0.1948817129707252 -0.2877498234141676
N 1.4775193217230740 -0.3152389725165598 0.4722581462976113 0.5692545008206258
O 0.7138468353620819 -0.4203597420900264 0.8894784104107023 -0.2058946535748549
O 1.2082201510345703 -0.3651196210230281 0.3399048559686168 -0.9992971180892700
N 0.6475118502071239 -0.3761447716025247 0.3755441327216537 0.6691943173322236
N 1.0754392659512362 -1.0618148459692536 1.6491645806681148 0.0628076875181509
N -1.4104731878156045 -1.3349000166145133 -0.2763242563361414 0.7576134719858190
O -1.2291533540420798 -1.0577295596010614 -0.1270020315168218 -0.9235083265987739
N -1.0530344221052199 -0.6658972393389425 -0.1239336635674294 0.9955526175656415
O -1.3018876536399966 -1.1603169083564295 -0.2851940828643759 -0.9936641819349231
O -0.3427558475136855 0.1449468755016215 -0.0113255439632744 -0.9934394819660318
N -0.6206328901712403 -0.2051924481981824 0.0670280705101535 0.8475065253219278
N -0.1947182490317504 0.3538352244675509 0.1418008894230134 0.9207393412409772
O -0.5508178562281930 0.3197466713163156 0.3281067312030419 -0.6738758902636315
N -2.3871839682153340 1.3480162684126056 -0.2269607232083936 0.1207489421105395
N -0.6697552677507950 0.9253013327163379 0.2126772086105618 0.4308753055723465
O -0.9533036873670960 0.8910220232655169 -0.1625977573764784 -0.7095764258838037
N -1.2283281024582320 0.7810645491004085 -0.0341204076245267 0.9977500474782615
O -1.1233519231635234 0.8994930653551190 0.1465705568046263 -0.9963537733476465
O -0.4638598020926197 2.3128525655433037 -0.0273410841580558 -0.1586318904925156
N -0.5243806442454496 2.2527882338211045 0.1254836347227083 0.3123697133706422
