21
s                      x[A]                      y[A]                      z[A]                      q[e]
N -1.9520312320775774 1.3528117577879675 1.1370551583019179 0.0690680479201058
O -1.7891182633262079 -0.4178740674467386 0.4078126990113873 -0.3117950550350966
N -1.9817201222319638 -0.3162865008151347 0.0931453315235548 0.5776243102962968
N -3.3233734547994778 -0.4802225124611758 0.1770990325427013 0.0604184539076988
O -1.9034658541641905 -0.0940252775329836 -0.1704037908353291 -0.3968494342195521
O -0.9332393731130352 -0.0318261880463017 -0.2600114281632500 -0.9828651838991298
N -0.7613914849838515 0.1075663072442048 -0.2398321563218385 0.7759263489545838
N -1.1157589763030105 -1.1633844440890031 -0.6204808972760834 0.9970342621901004
O -1.1723740790547945 -1.0269777560185434 -0.8591926374045020 -0.3970377457969525
O -1.1108304022105404 -1.3173791181024883 -0.3937219605895098 -0.3893757401670396
N 1.6670325369560806 -1.3566472492073605 0.1625269004046678 0.1691966627363242
O 1.3733456744206280 -1.0183843451277843 0.1181866561867398 -0.6800109224217911
O 0.4752376919331555 0.4058180950313011 -0.4755131494018933 -0.9821368279659007
N 0.3093230562235929 0.5050111122169363 -0.3782875447631034 0.8921713087406896
O 0.5654706159913719 0.4736422627992929 0.2163354978928887 -0.3335771210350215
N 0.7913122159338730 -0.1419114672469053 -0.1519870092310437 0.9988617281482304
N 2.4018549211213971 1.5399890551370776 0.1570222715035430 0.0655379221577991
N 1.1666103841523425 1.0429907990454517 -0.0139975661672701 0.9908754307264420
O 1.0882981484002305 1.0265071887372281 -0.3823330678634151 -0.6595771554465193
O 1.0458052035990384 1.0791617073395141 0.3365389719940978 -0.5578053818499882
N 0.0404051556183894 2.2982518227779916 -0.2339776477261139 0.0943160920587207
