21
s                      x[A]                      y[A]                      z[A]                      q[e]
N -0.1227549045156943 -0.0010499150710278 0.5358714856339130 0.0690680479201058
O -0.1842524896423457 0.3564725762476686 0.2092967980327324 -0.3117950550350966
N -0.3177551244544324 0.0033052828487326 0.1469993560201883 0.5776243102962968
N -0.1750191708020190 0.0150968224448807 -0.3844922882310438 0.0604184539076988
O -0.1911914841082009 -0.3156276529504655 0.2321189727172430 -0.3968494342195521
O -0.5195116965460637 -0.0730003894387909 0.1028797405821551 -0.9828651838991298
N -0.5929717979083748 -0.0695346369086833 0.3125479772730352 0.7759263489545838
N -0.2160013453252213 -0.0052398575616948 -0.3875648269815725 0.9970342621901004
O -0.2184033398566290 -0.2858785736714299 -0.3819531670101347 -0.3970377457969525
O -0.2621809608433741 0.2642750943382208 -0.3678823564224241 -0.3893757401670396
N -0.0839486602547637 -0.1000456108639313 0.5091136895752616 0.1691966627363242
O -0.1083715943141100 -0.0551857575794672 -0.3189519628142005 -0.6800109224217911
O -0.1323606818284780 0.3428036843248853 0.4680236388678494 -0.9821368279659007
N -0.2882760167810711 0.2204834007842656 0.5549022654659260 0.8921713087406896
O 0.0553656348565170 -0.3288943509034517 0.5385731149496256 -0.3335771210350215
N 0.2651854282923850 0.0782888055652233 -0.0578745553980524 0.9988617281482304
N 1.7850599047031919 -0.0135208074851611 0.3658459073303314 0.0655379221577991
N 0.5750166832535047 -0.0204800871165477 -0.2153864800997220 0.9908754307264420
O 0.4438696236512365 0.3323259346431351 -0.2354841728733687 -0.6595771554465193
O 0.5057471115131994 -0.3855941917038597 -0.1894730105556763 -0.5578053818499882
N -0.6545409234320785 0.0103709726218911 0.9591968480284061 0.0943160920587207
