25
s                      x[A]                      y[A]                      z[A]                      q[e]
N 0.0670927058179406 -0.0068371897389057 0.2424351699091691 0.1158659338886357
O -0.1681445955999491 0.4329499314007165 0.3029998771332336 -0.2341991647481463
N -0.0819616258447123 -0.0084762847175263 -0.3915423704206084 0.0569852111266852
N -0.5170396635321807 -0.0224219578163657 0.1451913366122219 0.3189271149812888
O -0.2342075250714423 -0.3498180784316447 0.2695955843340853 -0.2877498234141676
N 0.0265805063999968 0.1194033838663750 -0.5570368444161856 0.5692545008206258
O -0.1553789594145943 -0.4985818241555695 0.0458571847811516 -0.2058946535748549
O -0.0604999395559010 0.1613687380892485 -0.2675642935791820 -0.9992971180892700
N -0.1916650383399515 -0.0136117639268699 0.2385862974974787 0.6691943173322236
N 0.0165344914903894 -0.0176200494633784 0.3837486198774230 0.0628076875181509
N 0.0566461979813559 0.0071014701078629 0.2906199436070114 0.7576134719858190
O 0.0379588120174445 -0.0777677833521504 -0.0559215841031513 -0.9235083265987739
N 0.1041038098084588 -0.0068657101362130 -0.4794705251234447 0.9955526175656415
O 0.0711110896670962 0.0487699237411457 0.0971554944170767 -0.9936641819349231
O -0.0398200116308260 0.1122295544914059 -0.1270013889225948 -0.9934394819660318
N -0.0302398217596497 -0.0493072551171838 0.2962794034886623 0.8475065253219278
N -0.0816603209535658 0.0228637169829451 -0.3994708238168593 0.9207393412409772
O 0.1573688762607380 -0.2579323866638779 -0.2291510428464052 -0.6738758902636315
N -0.0651749401243798 0.0225698354418292 0.2203238667371872 0.1207489421105395
N 0.2646931642391631 0.0740838996184882 -0.4878103287875292 0.4308753055723465
O 0.3479846719128230 -0.2093473554683730 -0.1272044310642706 -0.7095764258838037
N 0.4495092619126467 -0.0094053985314213 0.1027718327272272 0.9977500474782615
O 0.3044243463232478 0.1268815565178343 -0.0369917340807032 -0.9963537733476465
O -0.0317110441606373 -0.3696001953404606 -0.1426037198525191 -0.1586318904925156
N -0.0339182910283958 -0.2023280206630303 -0.0899233001320720 0.3123697133706422
