25
s                      x[A]                      y[A]                      z[A]                      q[e]
N        1.9270083566018927        1.2922872219229897        0.1794478950757277        0.1158659338886357
O        1.7980055931916781       -0.2944983915119948       -0.4199987403340912       -0.2341991647481463
N        3.2853861870183065       -0.6746493121507126        0.0348084228682107        0.0569852111266852
N        2.0890098165056306       -0.5450589390256183        0.0461581601801943        0.3189271149812888
O        1.8225784912309355       -0.4057223716960995        0.3547516912864923       -0.2877498234141676
N        1.2849990633479509       -0.9662191738895103        0.0396571110333499        0.5692545008206258
O        0.8135913856736836       -0.5347606876966393       -0.5602905262892793       -0.2058946535748549
O        1.0831087750621158       -0.7460710206977489        0.0971255200244827       -0.9992971180892700
N        0.6552974168253590       -0.4259889590523043       -0.0769733776917445        0.6691943173322236
N        0.7661112129418496       -2.1586062184262853       -0.1759975071616849        0.0628076875181509
N       -0.5384754947045085        1.6295928412430072       -0.0263695464588304        0.7576134719858190
O       -0.5261718429595617        1.2752264474422073       -0.1055563527086827       -0.9235083265987739
N       -0.6071952036496358        0.8590547006444132       -0.0363020931991903        0.9955526175656415
O       -0.5519865982516191        1.4299820842573312        0.0218149896543423       -0.9936641819349231
O       -0.4788734767906351       -0.2018727281662175        0.0897011967868125       -0.9934394819660318
N       -0.4903335689408612        0.2187474817141239       -0.0802981887010197        0.8475065253219278
N       -0.4538318545164622       -0.4831861851921286       -0.0063864379516086        0.9207393412409772
O       -0.6909045760136520       -0.3006180291440678       -0.2768383181482477       -0.6738758902636315
N       -2.8489965164303799       -0.0299758926920884        0.0792650529055504        0.1207489421105395
N       -1.1643083868683952       -0.7100734372254862       -0.0555625780319515        0.4308753055723465
O       -1.4091489581364824       -0.4387374117685385        0.2424909966324778       -0.7095764258838037
N       -1.5619379161943523       -0.2350070234489737        0.0440345339233315        0.9977500474782615
O       -1.5275440149242423       -0.4313889611790975       -0.0899271411808864       -0.9963537733476465
O       -1.8057673750370673       -1.8839257851901718        0.4382905795520836       -0.1586318904925156
N       -1.8084389333685369       -1.8408262045179886        0.2686993654427725        0.3123697133706422

        RMSE         3.576320818E-01 kcal/mol

Coordinates in bohr
s                   x[bohr]                   y[bohr]                   z[bohr]                      q[e]
+        3.6415180354461518        2.4420689248631917        0.3391073754830178        0.1158659338886357
-        3.3977381431736138       -0.5565213043455245       -0.7936825922687106       -0.2341991647481463
+        6.2084801098267723       -1.2749024306933550        0.0657783860800415        0.0569852111266852
+        3.9476564265885536       -1.0300121169910363        0.0872262811955804        0.3189271149812888
-        3.4441741905766099       -0.7667041654768308        0.6703835390744347       -0.2877498234141676
+        2.4282963011974616       -1.8258896158172877        0.0749410787799032        0.5692545008206258
-        1.5374648969549958       -1.0105512424081340       -1.0587956453753673       -0.2058946535748549
-        2.0467789489475066       -1.4098698992595242        0.1835406326389424       -0.9992971180892700
+        1.2383326485199091       -0.8050024650777243       -0.1454586027888224        0.6691943173322236
+        1.4477403741023986       -4.0791745655358786       -0.3325870872988872        0.0628076875181509
+       -1.0175712102619381        3.0794841659559617       -0.0498312208597258        0.7576134719858190
-       -0.9943206781209772        2.4098287336063131       -0.1994725974216389       -0.9235083265987739
+       -1.1474326395894030        1.6233781110051015       -0.0686010139273149        0.9955526175656415
-       -1.0431034956186789        2.7022745035577160        0.0412243558764029       -0.9936641819349231
-       -0.9049397198800860       -0.3814841684331476        0.1695106950528734       -0.9934394819660318
+       -0.9265961554165225        0.4133728310732884       -0.1517415850152595        0.8475065253219278
+       -0.8576179120447348       -0.9130895576178699       -0.0120686186457701        0.9207393412409772
-       -1.3056204274913621       -0.5680857434571878       -0.5231486023325497       -0.6738758902636315
+       -5.3838231484368313       -0.0566462275541598        0.1497892413114155        0.1207489421105395
+       -2.2002239767548666       -1.3418443253186405       -0.1049980553047679        0.4308753055723465
-       -2.6629056008521901       -0.8290935492347560        0.4582415715246995       -0.7095764258838037
+       -2.9516348865756274       -0.4440989118776060        0.0832132091772785        0.9977500474782615
-       -2.8866398327890832       -0.8152069901742535       -0.1699376680772556       -0.9963537733476465
-       -3.4124057851069503       -3.5601037746975202        0.8282491587216250       -0.1586318904925156
+       -3.4174542986816125       -3.4786573711050184        0.5077682107711475        0.3123697133706422
