25
s                      x[A]                      y[A]                      z[A]                      q[e]
N -2.1629323427928400 0.9149208909633668 -0.2887720837052444 0.1158659338886357
O -1.7209755056676292 -0.6599446710873934 0.1930412653491580 -0.2341991647481463
N -2.9312818672141416 -1.3326880809524948 -0.6213597950942678 0.0569852111266852
N -1.8385877642105355 -0.9125616552354092 -0.3427929607080854 0.3189271149812888
O -1.5649171098924979 -0.6734378190534756 -0.5742113295948932 -0.2877498234141676
N -0.9541608262377175 -1.1273873604560030 -0.2002848675040741 0.5692545008206258
O -0.8011820168009917 -0.6211933757422028 0.5211397522183820 -0.2058946535748549
O -0.8055884901724383 -0.8619562727554296 -0.1999464475742743 -0.9992971180892700
N -0.5469412050190068 -0.4601313386661721 0.0969884048294572 0.6691943173322236
N -0.1968003948228683 -2.1611104556754754 0.0464017362985861 0.0628076875181509
N 0.0732004136274581 1.8336921902560048 0.3068668392850774 0.7576134719858190
O 0.1262171551210938 1.4844513780371229 0.3918230126204419 -0.9235083265987739
N 0.3221122973580628 1.1032596311011429 0.3621952285942675 0.9955526175656415
O 0.1477342471093540 1.6452082117900508 0.2712683663959830 -0.9936641819349231
O 0.5139597424516446 0.0549643340327266 0.2473277779198751 -0.9934394819660318
N 0.3677109339893727 0.4575891167661527 0.3971845631861509 0.8475065253219278
N 0.5376848026779282 -0.2263420948405787 0.3437694291470424 0.9207393412409772
O 0.6344730695015512 0.0021318534618862 0.6617482220486012 -0.6738758902636315
N 2.8095171881596479 0.0156483920323515 -0.5094673156927909 0.1207489421105395
N 1.2328051838833012 -0.2617617271349050 0.6198345654258364 0.4308753055723465
O 1.4607588419078088 -0.4125441492703819 0.0156964119045042 -0.7095764258838037
N 1.5791167988986952 -0.1357292692275236 -0.1009244293893153 0.9977500474782615
O 1.5821650720706244 -0.1041988548298089 0.1371744519741248 -0.9963537733476465
O 2.1064092486812704 -1.1972600367548705 1.1312749517420417 -0.1586318904925156
N 2.1044644892051605 -1.0262038815544168 1.1681788900105352 0.3123697133706422
