25
s                      x[A]                      y[A]                      z[A]                      q[e]
N 0.1049293993040931 -0.0334208548324534 0.1948706672932953 0.1158659338886357
O -0.2087724321807577 0.4721782142945482 0.3430775872065391 -0.2341991647481463
N -0.0939183108320005 -0.0158693841000840 -0.4070437884169588 0.0569852111266852
N -0.4743901837266092 -0.0437237761235359 0.1599004927653133 0.3189271149812888
O -0.2028318453465118 -0.3393295883631934 0.2553228944139229 -0.2877498234141676
N -0.0268543915647875 0.0851476214412925 -0.4889644860426818 0.5692545008206258
O -0.0983884748907221 -0.4237110857455270 0.0417517766004246 -0.2058946535748549
O -0.0054545231006957 0.1201530208170594 -0.1755796928999806 -0.9992971180892700
N -0.1706322153709180 -0.0497567146899765 0.2883060160346108 0.6691943173322236
N 0.0314648019211336 -0.1025177100658803 0.4816316452967920 0.0628076875181509
N 0.0105912661320531 -0.0006433348528477 0.0269901796137003 0.7576134719858190
O -0.0199172556052627 -0.0441655103078618 -0.2289940846266585 -0.9235083265987739
N 0.0418888283447605 -0.0105020462833483 -0.6652931641875678 0.9955526175656415
O 0.0023220333893303 0.0271801612964891 -0.1195338135344206 -0.9936641819349231
O -0.0849176390997255 0.0754129295185091 -0.1426973737350712 -0.9934394819660318
N -0.0713731466559145 -0.0485279270154039 0.2184757501710017 0.8475065253219278
N -0.1177890740118610 0.0094316789355853 -0.3868396888359123 0.9207393412409772
O 0.1239368950283515 -0.1915287514284394 -0.2363322248988191 -0.6738758902636315
N -0.0357468711301796 0.0131700249234198 0.2298688216871881 0.1207489421105395
N 0.3007510601593048 0.0565378137736424 -0.5190394315853792 0.4308753055723465
O 0.3838535885590760 -0.1562311620494926 -0.1890586331023295 -0.7095764258838037
N 0.5077040123388693 -0.0119690754294418 -0.0149432868546247 0.9977500474782615
O 0.3595429721398674 0.1001747310756307 -0.1366694220644903 -0.9963537733476465
O -0.0230152873437880 -0.3379523716899819 -0.0304001701299504 -0.1586318904925156
N -0.0069106209742519 -0.1692674639142335 -0.0451492924627647 0.3123697133706422
