21
s                      x[A]                      y[A]                      z[A]                      q[e]
N -1.9802812489612767 1.4269380231871469 0.0453773401628315 0.0707249461841811
O -1.6271150097589200 -0.0992073710171777 0.2924254516408322 -0.3496602100029151
N -1.4947756310089941 0.1392017695298811 -0.1820632360476432 0.9824851761690530
N -3.0383697393612175 -0.6946542558030504 0.0109600219140419 0.1071394941056757
O -1.5456245104492996 0.0313202694772561 -0.3287850898414656 -0.8194842575378962
N -0.4810243269425856 -0.6535517707787001 -0.1262114056508989 0.3116552922920345
N -0.7286608120220548 -2.0177781768206113 -0.0167511443253071 0.0918298459672651
N -1.2417320987709530 -1.0121594364869990 -0.0398732374046128 0.5593901217632046
O -0.9446621170502164 -0.8193023175162132 -0.0586195824366598 -0.9963138680841535
N 0.7187616279988003 0.8870095598694155 -0.0842345115778166 0.9989733053171830
O 0.6900612786971504 0.9834905435394261 -0.0998766176421018 -0.8354521971080898
N 0.5009316290161382 1.7359830283731643 -0.0066049436648318 0.2899344186932475
O 0.5130543455218678 1.3488741107513289 0.0023920020451769 -0.8678253524624289
N 0.5330151829387103 -0.4046800302714473 -0.0785059072257687 0.9219570073558310
O 0.6472424745628198 -0.2281704650316092 -0.2417531967973626 -0.9704818863270434
O 0.7852153615183897 -0.2455755457859803 0.4186421858737223 -0.3320651923316272
N 0.6013044277884221 0.3449763801012908 -0.0129994592980053 0.9769593393400061
O 1.5210889957586669 -0.5398559770433521 -0.5142933150179394 -0.1970026432733326
O 1.5223709876097764 -0.5025846995635235 0.4897758717662420 -0.1946060569702309
N 2.7728006477853491 0.0245696474933448 0.0001563010924803 0.1283355164991325
N 1.7299046612146640 -1.8899962578100666 0.0044409186596958 0.1235072004109040
