23
s                      x[A]                      y[A]                      z[A]                      q[e]
N 1.8707737829671898 1.3694273832642843 0.1871440980327217 0.2856065124296451
O 1.7967879003010290 1.1772637101280445 0.1540663612168939 -0.2980193526493612
N 2.6862279686366635 -0.4406644905166225 0.2977899110346872 0.9235469647741466
O 2.6040140546173820 -0.3861461045469466 0.2978399550199950 -0.9987019282037162
O 1.5197977714806756 -0.0449010082886595 0.1029995105314988 -0.9994297377915048
N 1.6746580269172584 -0.4259198000765639 0.1174165253606165 0.3910255639585828
N 2.0674098375980332 0.0943949255522598 0.2265962078185391 0.3788084070601841
N 1.3099426760493005 0.4724513799659708 0.0628759082195931 0.3521750120262308
N 1.0918299893261636 -0.6040330279564180 -0.0952301395537485 0.5091785922378865
N 0.6900398108936172 -0.0261364140799424 -0.1801110158375766 0.9946620798872232
O 0.8353262518937657 -0.0849278121672800 -0.1076156066002705 -0.5088390984708862
O 0.8437569556403440 -0.3517832831834543 -0.1053817459936407 -0.9513197152299744
N 0.6032302515456088 -1.8386993791683628 -0.0949953403377093 0.0534150746794947
N 0.1680988045501739 -1.7876850987645658 -0.2085044592833125 0.0449830180293293
O 0.8283554924068720 -0.1383555245083874 -0.4739411531726805 -0.1594766348608674
O -0.3784352672941898 1.3598488782890590 -0.0084616102441430 -0.2085098172073890
N -0.4579262716315823 1.2967559562528455 -0.3186394814348150 0.7433887315217406
O -0.4399301398518587 1.2770757208830725 -0.4823922165544203 -0.4563903046399361
N -0.6659059889024717 -0.1921740796990054 0.0159028984361252 0.2740207269363132
N -1.3662881406352785 0.1013896485968167 -0.0685417710267246 0.2947455612059413
O -1.8261242264360369 -0.4642044320875593 0.1153840997523260 -0.8294346811293033
N -1.9900094457433206 -0.2752111525864794 0.0974988084017090 0.8271270632704910
O -2.0541024761202515 0.0645503576701370 0.0305567120443228 -0.6625620378342709
