21
s                      x[A]                      y[A]                      z[A]                      q[e]
N 0.0271984565191009 -0.0450243346213320 0.3788074081983310 0.0707249461841811
O 0.1028048081611544 0.2923703842674948 0.3139069444516594 -0.3496602100029151
N 0.3753596305454913 -0.1822764355217209 0.3124058910728152 0.9824851761690530
N 0.0336457010611660 -0.0110070913387004 -0.1884913504090537 0.1071394941056757
O 0.2563743936134169 -0.3289978021751240 0.3210080346028981 -0.8194842575378962
N 0.1011331318646140 0.1261682519451061 0.2906848283010081 0.3116552922920345
N 0.0297640749502884 -0.0163093213716111 0.2435969480872992 0.0918298459672651
N 0.0909411480529780 0.0397428669405851 -0.5502758555222835 0.5593901217632046
O 0.0474153226095592 0.0585278311054002 -0.1987845403567869 -0.9963138680841535
N 0.2263186640735172 0.0842525704631262 -0.4262998675833644 0.9989733053171830
O 0.2005791463316100 0.0998850449867647 -0.3289609996468599 -0.8354521971080898
N 0.0344599067506494 0.0064671299408490 0.4289356775711878 0.2899344186932475
O 0.0348283587134314 -0.0024864713939496 0.0417106334445919 -0.8678253524624289
N 0.0011218927728881 0.0786092634955532 -0.3512905158974373 0.9219570073558310
O 0.1206948398162112 0.2419184635780341 -0.1782909986819015 -0.9704818863270434
O 0.2581489303297527 -0.4185797386499195 -0.1999453221352729 -0.3320651923316272
N 0.0923177418099376 0.0130189249724066 0.3959823597016024 0.9769593393400061
O 0.1996733732285262 -0.5144377957588980 -0.0956064304444764 -0.1970026432733326
O 0.2308439914601106 0.4896804246577969 -0.0748287649621873 -0.1946060569702309
N 0.0218175340267489 -0.0000566462349802 0.1847041146048675 0.1283355164991325
N 0.0371600737975820 0.0045553282255520 -0.1492128205201030 0.1235072004109040
