25
s                      x[A]                      y[A]                      z[A]                      q[e]
N -1.6819302202951329 0.5618964306364208 -1.5083244593171070 0.1158659338886357
O -1.8313681285143626 0.2155127037213304 0.1479542501838396 -0.2341991647481463
N -3.3540571291643451 -0.2771461731305610 -0.0202826567739463 0.0569852111266852
N -2.1522154863221528 -0.2829426750408592 0.0660419218424538 0.3189271149812888
O -1.8443049876563677 -0.5018371500004932 -0.1705727004187114 -0.2877498234141676
N -1.4572156426470650 -0.4749840462898048 0.4821627018598119 0.5692545008206258
O -0.7654160892254199 -0.1975052146814226 0.9315954999579568 -0.2058946535748549
O -1.2168766142045500 -0.3238109658620018 0.3573504990435962 -0.9992971180892700
N -0.7029880980720933 -0.1224460476081769 0.4319976336237087 0.6691943173322236
N -1.1258543879269773 -1.0224116382284436 1.7427327052743309 0.0628076875181509
N 0.9206349418593921 1.5696159079733656 0.0393852650000835 0.7576134719858190
O 0.8469631442373993 1.2321081139593180 0.1361339961132371 -0.9235083265987739
N 0.8041428943486412 0.8088011395460812 0.0598712885463210 0.9955526175656415
O 0.8794574292668136 1.3772196661509319 0.0032025471218960 -0.9936641819349231
O 0.4089228941951425 -0.1934852769475076 0.0025966513109428 -0.9934394819660318
N 0.5513043081247712 0.2083355237257467 0.1511717082902996 0.8475065253219278
N 0.3360298931110405 -0.4580763085845567 0.1147286787873360 0.9207393412409772
O 0.6670986942319308 -0.3460121969962979 0.3118167819052841 -0.6738758902636315
N 2.6909594931289114 -0.5919525441094519 -0.4996587508849311 0.1207489421105395
N 0.9604473118054123 -0.8488785491312831 0.0127063576461778 0.4308753055723465
O 1.1950090235796536 -0.6401738653073228 -0.3388402145408646 -0.7095764258838037
N 1.4267830437620568 -0.4824108030320456 -0.1824452937348172 0.9977500474782615
O 1.3788787142512329 -0.6696777538100804 -0.0430289586304684 -0.9963537733476465
O 1.1760685408491089 -2.1306455290848345 -0.5817844628089257 -0.1586318904925156
N 1.2309624962362544 -2.0881797760783858 -0.4131148054315428 0.3123697133706422
