25
s                      x[A]                      y[A]                      z[A]                      q[e]
N 1.7968943124256636 0.9995468017574118 -1.2449536652337776 0.1158659338886357
O 1.7890952260901762 -0.4013519505012399 -0.3329909575548398 -0.2341991647481463
N 3.3721266635818385 -0.2696950397589175 0.0348385902897131 0.0569852111266852
N 2.1677713569671324 -0.2178392908131986 0.1105067043693346 0.3189271149812888
O 1.9365727953665712 0.1301836831523851 0.2245625217684005 -0.2877498234141676
N 1.4629305452640660 -0.4639827819379574 0.3921636643005070 0.5692545008206258
O 0.7031622204673618 -0.5108197898318900 0.8393950631033587 -0.2058946535748549
O 1.1801746890239642 -0.4694764892267221 0.2809317336160563 -0.9992971180892700
N 0.6289925051087029 -0.4651399677771983 0.3219208858144181 0.6691943173322236
N 1.0266304017464107 -1.3582499087964861 1.4452769542697521 0.0628076875181509
N -1.5012941288242276 -1.2641826369297098 -0.2781840367312516 0.7576134719858190
O -1.3034133827929615 -1.0014990245875726 -0.1312027981703199 -0.9235083265987739
N -1.0964727258199440 -0.6255647313871554 -0.1247208215112715 0.9955526175656415
O -1.3871987239734207 -1.0957045127778542 -0.2884990766468750 -0.9936641819349231
O -0.3370353585506751 0.1400982251150447 -0.0170021873063212 -0.9934394819660318
N -0.6315733024279316 -0.2015724550816290 0.0599577134830382 0.8475065253219278
N -0.1703064044566834 0.3238038320697832 0.1308046988570718 0.9207393412409772
O -0.5211260240882660 0.3200326660031499 0.3301699739469663 -0.6738758902636315
N -2.2987548528086457 1.4760747917131560 -0.1672036463196129 0.1207489421105395
N -0.6059287258181274 0.9274359930927649 0.2227798391974037 0.4308753055723465
O -0.8957974257608724 0.9269074962332993 -0.1436390224806356 -0.7095764258838037
N -1.1759556744717687 0.8267958863919513 -0.0131488848772035 0.9977500474782615
O -1.0570436506488790 0.9390098952361645 0.1680533677244195 -0.9963537733476465
O -0.3099502575956183 2.3085039697104541 0.0120389993548644 -0.1586318904925156
N -0.3777922472122421 2.2453925270931090 0.1614405493731454 0.3123697133706422
