30
s                      x[A]                      y[A]                      z[A]                      q[e]
N 1.7559079473459818 0.8904889231247592 1.4011686854349203 0.2137068255539760
N 1.4957165518852598 0.9020153130244386 0.5945834713250161 0.4524136045707061
O 1.4358978953214236 1.4649997355394104 0.6129347020123557 -0.5303393512711568
N 1.1807043921738496 2.0312190095432165 0.7793950133801951 0.2065219334641430
N 3.1910478268605500 1.1442515994723355 0.9440055526420714 0.0640972179527254
N 1.3645802467600228 0.3219648150169307 1.7635965159740421 0.2729192555687945
O 1.5877676601901702 0.6014656328501904 1.3935882378675606 -0.5760168259183410
O 2.6464935699463372 -0.1670880042927488 -1.0195634826247073 -0.7855321009151053
O 2.2595969439125860 -0.3261487786723262 -1.3959080113548659 -0.7445427033607991
N 2.4636903727455040 -0.2798343402707849 -1.2329530142166263 0.9977538426035523
N 1.7253326550868500 0.3783882850613399 -0.1836435590682550 0.2084365764815679
N 1.3033164281305087 0.0543538903564384 -0.7640570121283651 0.3300899125146088
N -0.1111059906824401 0.5102950845712513 -0.9976611070150164 0.6266498413516267
O -0.0418382418891253 0.4164783116627613 -0.5158210826575208 -0.5811225412727979
N -0.0050512301216986 -0.7956056374781731 -1.7505932735170819 0.5003074335780895
O 0.0170172882078429 -0.6108723761073065 -1.6470335694210902 -0.5967490130385100
N -0.2621290142934903 0.8606516402857414 -1.3329123045309115 0.9708061175491041
O -0.3241922456844458 1.1018976011146948 -1.1035413531782852 -0.1568654630532827
O -0.2250344392956524 0.7703653239909194 -1.4528676119407298 -0.7813807259506527
N -0.6561160049297564 0.1311880338215276 0.3254929022063764 0.1400529194232831
N -0.6718848821764190 -0.5452212612967973 0.2268502226311388 0.1778327620465852
N -0.7976711291984226 -0.9058091424984455 0.6267013429783322 0.7120624373414439
O -0.7379499706202990 -1.0334033481858584 0.7148911297103636 -0.9970019554920370
N -1.7789226556431421 -0.4662546628571446 -0.2917340548778713 0.9931708722557875
N -2.4627471493205539 -0.6219332009913832 -0.6323377858243594 0.8506195801821621
O -2.1857972862504309 -0.5269019909354496 -0.5979175135552818 -0.8089940633040810
O -2.3288250694795942 -0.5740243660878940 -0.4919067580479455 -0.9883399134133223
N -1.3593600172975087 1.1653924925974752 1.2530989257306113 0.2529889584625400
N -1.2600051101636875 0.4797359550588824 0.7737999223904068 0.5419198115726583
O -1.2843061566316050 0.8508270565560753 0.9784295266106713 -0.9654652454832693
