13
s                      x[A]                      y[A]                      z[A]                      q[e]
C 1.7226579961556461 0.9746704841537678 0.8340460618508969
C 1.4648419031672888 0.2406890230766449 -0.4494921029206948
H 1.2198849798104279 1.9471575264848691 0.8367760853939283
H 2.7973800463830765 1.1102765051753720 0.9583236796672048
H 1.3310609867896748 0.4086060720574435 1.6864658587043921
C 0.0307163206631772 0.0817518514190799 -0.9564828055291715
O 2.3781009874231613 -0.1990029951268343 -1.1537001045451096
C -1.0126566152081338 -0.2148519748505650 0.0804366544826865
H 0.0232421911772613 -0.7256677552167712 -1.6917652042195623
H -0.2653251772800992 1.0051692302371131 -1.4680511583116853
F -0.6627746493420020 -1.2899849748902996 0.8931648491950805
F -2.2307398961802285 -0.5329578303924535 -0.5081911931953846
F -1.2580860694889338 0.8621560813847728 0.9324492371644759
