30
s                      x[A]                      y[A]                      z[A]                      q[e]
N        1.6841308235329879        1.7080779979947589        0.3056115135062311        0.2137068255539760
N        1.5319350227408708        1.0141086212183050       -0.1870320475745856        0.4524136045707061
O        1.6040301466107862        1.3222727241513230       -0.5712140159710735       -0.5303393512711568
N        1.3857784367420962        1.7218620630855233       -1.1221351359917420        0.2065219334641430
N        3.1847483643388723        1.4779356488705464        0.2020367225470852        0.0640972179527254
N        1.1680483397841677        1.7294896011143355        0.8847441479090162        0.2729192555687945
O        1.4549611397636328        1.5595533447509262        0.5595240165385210       -0.5760168259183410
O        2.7063429289253276       -0.9053936398881158        0.2432323508097509       -0.7855321009151053
O        2.3319018789540227       -1.3475299594668684        0.0985465898756429       -0.7445427033607991
N        2.5478132163987524       -1.1259998130353921        0.1898222304103470        0.9977538426035523
N        1.7699105521618947        0.0871598821360622       -0.0471016501921447        0.2084365764815679
N        1.3821165691504254       -0.5688158015426452       -0.1577269058860739        0.3300899125146088
N        0.2037947360434207       -1.2945287324983115       -0.2978861952408139        0.6266498413516267
O        0.0798374606286327       -0.2582189985550957       -0.5217956376663981       -0.5811225412727979
N        0.1130609298795866       -1.9048955510824856       -0.2126002094044333        0.5003074335780895
O        0.1000067949469845       -1.7686639803944926       -0.2437257661292535       -0.5967490130385100
N        0.0942783982255571       -0.7472751081069307       -1.4995142235506751        0.9708061175491041
O        0.0231542706177677       -0.3912438478358772       -1.5329057626298981       -0.1568654630532827
O        0.0946227747577882       -0.8593616845475052       -1.3894154906680845       -0.7813807259506527
N       -0.6583602369825304        0.3273755082278500       -0.1001078852129853        0.1400529194232831
N       -0.7796484764091794       -0.0963052825464788        0.4193723710390386        0.1778327620465852
N       -1.0329863448160383        0.0668850512241574        0.8889360154920205        0.7120624373414439
O       -1.0108630313363256        0.0686260412733097        1.0855579878521353       -0.9970019554920370
N       -1.7909355469543913       -0.5382189636838950       -0.1619896585491546        0.9931708722557875
N       -2.4468131625853355       -0.9328157838135036       -0.3445763630709741        0.8506195801821621
O       -2.1584332445376102       -0.8610431655111975       -0.3259981260805736       -0.8089940633040810
O       -2.3252871942596767       -0.7972008365090657       -0.2673525861810684       -0.9883399134133223
N       -1.2931707177128571        1.6394208933768331       -0.6808759238411833        0.2529889584625400
N       -1.2568636908998820        0.8805155233016279       -0.3172488423426870        0.5419198115726583
O       -1.2441489650622259        1.2567541678761525       -0.5268119279731828       -0.9654652454832693

        RMSE         4.537392746E+00 kcal/mol

Coordinates in bohr
s                   x[bohr]                   y[bohr]                   z[bohr]                      q[e]
+        3.1825460159190948        3.2277996171303998        0.5775220613134328        0.2137068255539760
+        2.8949376349772558        1.9163875555682479       -0.3534393465995659        0.4524136045707061
-        3.0311776740723531        2.4987333118090471       -1.0794380492082227       -0.5303393512711568
+        2.6187417160076474        3.2538477250474283       -2.1205280827777675        0.2065219334641430
+        6.0183021871002529        2.7928936074161390        0.3817940728991015        0.0640972179527254
+        2.2072914634877838        3.2682616829333977        1.6719241306495929        0.2729192555687945
-        2.7494780773372356        2.9471286996209645        1.0573471518739410       -0.5760168259183410
-        5.1142469372382493       -1.7109460151199292        0.4596425278817098       -0.7855321009151053
-        4.4066559026636147       -2.5464625692416694        0.1862260654627803       -0.7445427033607991
+        4.8146691978154612       -2.1278312639536106        0.3587120279991082        0.9977538426035523
+        3.3446462101438228        0.1647083063643418       -0.0890092189202716        0.2084365764815679
+        2.6118217891516999       -1.0749060807483719       -0.2980606547405418        0.3300899125146088
+        0.3851162369320341       -2.4463047659578674       -0.5629233255597974        0.6266498413516267
-        0.1508709351401379       -0.4879631876591216       -0.9860508486481194       -0.5811225412727979
+        0.2136541929620105       -3.5997308891489599       -0.4017561699893626        0.5003074335780895
-        0.1889854531346205       -3.3422905309077047       -0.4605749477016750       -0.5967490130385100
+        0.1781603521931522       -1.4121452946939896       -2.8336712037393208        0.9708061175491041
-        0.0437552301023163       -0.7393437206801042       -2.8967720675065745       -0.1568654630532827
-        0.1788111295231038       -1.6239582265068693       -2.6256147518312862       -0.7813807259506527
+       -1.2441205397884947        0.6186500507332023       -0.1891764860513117        0.1400529194232831
+       -1.4733220945438177       -0.1819906084476788        0.7924989258476650        0.1778327620465852
+       -1.9520612830400563        0.1263944287008753        1.6798456123356558        0.7120624373414439
-       -1.9102542795757498        0.1296844230809205        2.0514072903436116       -0.9970019554920370
+       -3.3843776920908182       -1.0170864368902943       -0.3061160898143305        0.9931708722557875
+       -4.6238067574516011       -1.7627663569117993       -0.6511549555104617        0.8506195801821621
-       -4.0788476922594272       -1.6271357650134188       -0.6160471757047549       -0.8089940633040810
-       -4.3941559601850431       -1.5064912479880161       -0.5052231668150805       -0.9883399134133223
+       -2.4437384899390362        3.0980564928356138       -1.2866690214779186        0.2529889584625400
+       -2.3751281528328594        1.6639331882542572       -0.5995134256462272        0.5419198115726583
-       -2.3511008032394072        2.3749211843135787       -0.9955302634937312       -0.9654652454832693
