30
s                      x[A]                      y[A]                      z[A]                      q[e]
N        1.6814150860422110        1.7056698742896288        0.3209213535658910        0.2137068255539760
N        1.5387269467522167        1.0085452493766154       -0.1395886678261381        0.4524136045707061
O        1.5785823632242499        1.3069506881166248       -0.6194138852163685       -0.5303393512711568
N        1.4086192205282750        1.7295306792265916       -1.0732593509877193        0.2065219334641430
N        3.1871459092259333        1.4778841529426043        0.2029872493804067        0.0640972179527254
N        1.1495034463048062        1.7208900045279121        0.8906136549377678        0.2729192555687945
O        1.4669070001530846        1.5487183451523476        0.5239375604582235       -0.5760168259183410
O        2.6869757074220040       -0.8929157569159154        0.2328504043865199       -0.7855321009151053
O        2.3322560101283769       -1.3083280140027156        0.0978277155463680       -0.7445427033607991
N        2.5174559950091879       -1.1388605559058669        0.1834736858887689        0.9977538426035523
N        1.7739222476228180        0.0789243225112245       -0.0254211029051000        0.2084365764815679
N        1.3830221265971987       -0.5967837043077950       -0.1283362093467809        0.3300899125146088
N        0.1175451022948367       -0.6062188273207189       -0.9416767923666400        0.6266498413516267
O        0.1032686084779633       -0.2359653324830839       -0.6123168854873977       -0.5811225412727979
N        0.0890768313574392       -1.9122065473037000       -0.1819947613538034        0.5003074335780895
O        0.1296315003120784       -1.7290101865650387       -0.2826546933452248       -0.5967490130385100
N        0.0782187636966148       -0.7226938427248721       -1.4344627957267664        0.9708061175491041
O        0.0299041518146876       -0.4046787484498532       -1.5402672839270815       -0.1568654630532827
O        0.1144186267823867       -0.8707722720290166       -1.4084003540235850       -0.7813807259506527
N       -0.6599201905864283        0.3294295788137778       -0.0981103266156094        0.1400529194232831
N       -0.7828834537674427       -0.0975396627142153        0.4215875403636186        0.1778327620465852
N       -1.0238805823384347        0.0620690392204792        0.8929389641861620        0.7120624373414439
O       -1.0003828440963096        0.0753613691082659        1.0569374606866337       -0.9970019554920370
N       -1.7777132176837998       -0.5348891573431567       -0.1438655247131982        0.9931708722557875
N       -2.4260365807689652       -0.9257373886482753       -0.3303517812766539        0.8506195801821621
O       -2.1437794765470213       -0.8406246617809197       -0.3322658146561502       -0.8089940633040810
O       -2.3059013478539532       -0.7767858040047297       -0.2726265291099402       -0.9883399134133223
N       -1.2856055332690279        1.6329340189964523       -0.6760185933308388        0.2529889584625400
N       -1.2466595540739360        0.8759485866688228       -0.3083501481357377        0.5419198115726583
O       -1.2316235772338973        1.2391734100279244       -0.5274712755730370       -0.9654652454832693

        RMSE         1.250828178E+00 kcal/mol

Coordinates in bohr
s                   x[bohr]                   y[bohr]                   z[bohr]                      q[e]
+        3.1774140158328881        3.2232489228514809        0.6064534660507530        0.2137068255539760
+        2.9077725112236203        1.9058743064533703       -0.2637843524089077        0.4524136045707061
-        2.9830883329718239        2.4697788600190718       -1.1705226013647081       -0.5303393512711568
+        2.6619045418543230        3.2683393093153130       -2.0281662349534062        0.2065219334641430
+        6.0228328903102897        2.7927962942157518        0.3835903082889778        0.0640972179527254
+        2.1722466937860019        3.2520108005956359        1.6830158914253830        0.2729192555687945
-        2.7720524818062544        2.9266535178102053        0.9900984961065453       -0.5760168259183410
-        5.0776481927858903       -1.6873662336769568        0.4400234924926268       -0.7855321009151053
-        4.4073251135956308       -2.4723816287292868        0.1848675898618286       -0.7445427033607991
+        4.7573023634592939       -2.1521345457487420        0.3467150175580498        0.9977538426035523
+        3.3522272158637101        0.1491453541835203       -0.0480389222977194        0.2084365764815679
+        2.6135330447169700       -1.1277577572779398       -0.2425202876448370        0.3300899125146088
+        0.2221280507261658       -1.1455875557323703       -1.7795112362725665        0.6266498413516267
-        0.1951493873804831       -0.4459098534956262       -1.1571112155645047       -0.5811225412727979
+        0.1683308153891539       -3.6135466697113121       -0.3439202552267450        0.5003074335780895
-        0.2449680328220292       -3.2673557207346673       -0.5341399584977422       -0.5967490130385100
+        0.1478120412585053       -1.3656934353047017       -2.7107418210821463        0.9708061175491041
-        0.0565106569438724       -0.7647320033632642       -2.9106833266249761       -0.1568654630532827
-        0.2162198682696849       -1.6455211117775035       -2.6614909441024226       -0.7813807259506527
+       -1.2470684248682826        0.6225316815829645       -0.1854016473827175        0.1400529194232831
+       -1.4794353157729923       -0.1843232488993976        0.7966849891926366        0.1778327620465852
+       -1.9348538857939148        0.1172934849970061        1.6874100890618424        0.7120624373414439
-       -1.8904495959486016        0.1424123480541606        1.9973223324345881       -0.9970019554920370
+       -3.3593911110287755       -1.0107940148554861       -0.2718664406032296        0.9931708722557875
+       -4.5845447079954944       -1.7493901286417528       -0.6242743916700232        0.8506195801821621
-       -4.0511560840512137       -1.5885503850715545       -0.6278913905522555       -0.8089940633040810
-       -4.3575220197680347       -1.4679124277125017       -0.5151894745519432       -0.9883399134133223
+       -2.4294423632516251        3.0857980768464452       -1.2774899971125373        0.2529889584625400
+       -2.3558451288851230        1.6553029287859351       -0.5826973307208949        0.5419198115726583
-       -2.3274312506287229        2.3416983669024343       -0.9967762498789334       -0.9654652454832693
