30
s                      x[A]                      y[A]                      z[A]                      q[e]
N 1.6841780075035591 1.7079841994997800 0.3056282313564399 0.2137068255539760
N 1.5320289702938528 1.0138891295964032 -0.1869782209208700 0.4524136045707061
O 1.6039108230840402 1.3225109598249032 -0.5712838926000272 -0.5303393512711568
N 1.3858367551599766 1.7217808853733128 -1.1221040095860790 0.2065219334641430
N 3.1847588045790745 1.4779100592295771 0.2020401980083720 0.0640972179527254
N 1.1681102547539084 1.7293624844377438 0.8847613335836874 0.2729192555687945
O 1.4548421049679701 1.5598196036732355 0.5594879632610146 -0.5760168259183410
O 2.7063382295056462 -0.9050060896938431 0.2431730457355468 -0.7855321009151053
O 2.3319128366049200 -1.3471279394611071 0.0984776693026893 -0.7445427033607991
N 2.5478222887486068 -1.1265051682064395 0.1899038233873552 0.9977538426035523
N 1.7699425995029028 0.0870435130960866 -0.0470758680917002 0.2084365764815679
N 1.3821634580751943 -0.5690224584060445 -0.1576775896155143 0.3300899125146088
N 0.2039286816486436 -1.2949575232525907 -0.2977641908334701 0.6266498413516267
O 0.0797128255797839 -0.2578567431773074 -0.5219118912264860 -0.5811225412727979
N 0.1131753413907702 -1.9052383611569537 -0.2124978150666077 0.5003074335780895
O 0.0998718226131930 -1.7682658018395943 -0.2438416932891559 -0.5967490130385100
N 0.0944979681834582 -0.7478923859848789 -1.4993235037383179 0.9708061175491041
O 0.0231141084438110 -0.3911380980727389 -1.5329465619170013 -0.1568654630532827
O 0.0944393324755236 -0.8588513825643449 -1.3895827864506571 -0.7813807259506527
N -0.6583316005524666 0.3272954595889112 -0.1000838673591572 0.1400529194232831
N -0.7796082123533120 -0.0964137950536418 0.4193985605619125 0.1778327620465852
N -1.0328367335250970 0.0664765348894715 0.8890121824994173 0.7120624373414439
O -1.0110695814985702 0.0691752115829296 1.0854715280062872 -0.9970019554920370
N -1.7907328982818913 -0.5387339228618371 -0.1618463844924645 0.9931708722557875
N -2.4466464819063050 -0.9332196047777870 -0.3444636185940945 0.8506195801821621
O -2.1586154644286379 -0.8606428816070200 -0.3261213030319182 -0.8089940633040810
O -2.3254934058570145 -0.7967488699735595 -0.2674850334482866 -0.9883399134133223
N -1.2931433047696705 1.6393173762659523 -0.6808378402658420 0.2529889584625400
N -1.2567803923749628 0.8802547198293160 -0.3171658847110777 0.5419198115726583
O -1.2442764330758520 1.2571633012522845 -0.5269520455833234 -0.9654652454832693
