25
s                      x[A]                      y[A]                      z[A]                      q[e]
N -2.3926998015056289 -0.0162398046438939 -0.3682905632816247 0.1158659338886357
O -1.1267402246457421 1.1399562390536497 -0.4127018370947015 -0.2341991647481463
N -2.1095020099619046 2.3513378637122817 -0.0323539956355777 0.0569852111266852
N -1.3230966641461110 1.4458007770865655 0.0684885551345553 0.3189271149812888
O -1.3140445737634134 1.1163194014539983 0.3471246116785515 -0.2877498234141676
N -0.4683034052852282 1.2028457178367602 0.3125344497493579 0.5692545008206258
O -0.2865551325358154 0.6273108032678035 -0.3784824371507671 -0.2058946535748549
O -0.4764467372488574 0.8986443734789427 0.3293182215959835 -0.9992971180892700
N -0.3292079375307982 0.4045610457123044 0.0881228674249403 0.6691943173322236
N 0.7009930705170241 1.7288822344875205 0.5421900022524171 0.0628076875181509
N -0.8033724986321581 -1.9240438962927826 -0.1274190110861149 0.7576134719858190
O -0.5749796983352934 -1.6400231329689685 -0.1400193647702892 -0.9235083265987739
N -0.2501563479054016 -1.4014363776055190 0.0078344610821538 0.9955526175656415
O -0.6813945286350136 -1.7800917781203305 -0.0411296758326619 -0.9936641819349231
O 0.3071911912754443 -0.5660260483775844 0.3106670055390285 -0.9934394819660318
N 0.0662774012490727 -0.8640851400768486 0.0642589634732714 0.8475065253219278
N 0.5019897729920690 -0.3442383752074103 0.2635359696126411 0.9207393412409772
O 0.5948200119060995 -0.6170814954260140 -0.0123969049705487 -0.6738758902636315
N 2.8747345335071173 0.1609143914801573 -0.3210626995540352 0.1207489421105395
N 1.1724282643214017 -0.6732277526640322 0.2928571853667093 0.4308753055723465
O 1.4683838318140261 -0.3425501121808337 -0.0806552058940863 -0.7095764258838037
N 1.6144891504509256 -0.0505364764541162 -0.0656956234449053 0.9977500474782615
O 1.6005458681139060 -0.1276220338733574 0.1658242894349796 -0.9963537733476465
O 1.9800894843708141 -1.5859687921539516 0.6137221505562885 -0.1586318904925156
N 1.9867174277461910 -1.4461565258816607 0.7195271678010314 0.3123697133706422
