11
s                      x[A]                      y[A]                      z[A]                      q[e]
C 1.6723394801213871 -0.5724213035419914 -0.2771265608284985
C 0.4893451150373759 0.2225946077211062 0.1811425787500971
H 1.8193574834899933 -1.4497048884578667 0.3573151630373332
H 2.5682899178348313 0.0480959380998695 -0.2823336232010075
H 1.4715397702855584 -0.9316680355360757 -1.2928134682224093
O -0.6197445503097528 -0.5712467105070121 0.4211977712551866
O 0.4408511141594166 1.4460215956641402 0.2560681322195015
C -1.8353266157639803 -0.3011774019028121 -0.3448205589744802
H -2.0994336159678411 0.7568974804170461 -0.2837737503427691
H -2.6080739020979684 -0.9139887022705701 0.1128787822008546
H -1.6786793169970420 -0.6018091194568390 -1.3845693250763624
