25
s                      x[A]                      y[A]                      z[A]                      q[e]
N       -2.4090629334112159        0.0678218800822618       -0.2984904804540053        0.1158659338886357
O       -1.0899068933431362        1.1659884228145434       -0.4096116682651308       -0.2341991647481463
N       -2.0108877134346406        2.4187746390634106       -0.0071416973061779        0.0569852111266852
N       -1.2616230249757581        1.4812802251599604        0.0760538044265918        0.3189271149812888
O       -1.2557218080730945        1.1534928367948170        0.3556086312339362       -0.2877498234141676
N       -0.4113666055220991        1.2039720363560014        0.2970376012630511        0.5692545008206258
O       -0.2777465786346358        0.6216188622517307       -0.3888207435194984       -0.2058946535748549
O       -0.4271460776046340        0.9006691484154576        0.3139456560765173       -0.9992971180892700
N       -0.3145024589720317        0.3982595154673796        0.0794135387785568        0.6691943173322236
N        0.7865215127629842        1.6826659854641162        0.4894591201781787        0.0628076875181509
N       -0.8963747058009083       -1.9025245092073928       -0.1290043052561614        0.7576134719858190
O       -0.6489089926467321       -1.6374684012397931       -0.1514420330345993       -0.9235083265987739
N       -0.3154272550720254       -1.4050934601457641       -0.0123317252707614        0.9955526175656415
O       -0.7566783950026414       -1.7743308546508847       -0.0490037963534203       -0.9936641819349231
O        0.2904049143099956       -0.6023751822673195        0.2687888345736540       -0.9934394819660318
N        0.0234362824419156       -0.8841451576888756        0.0336592611730789        0.8475065253219278
N        0.4893252042595905       -0.3858316503969773        0.2184222330295461        0.9207393412409772
O        0.5618695127875133       -0.6630700258381257       -0.0653999522656296       -0.6738758902636315
N        2.8852845442127149        0.1435439022624755       -0.2576404214486790        0.1207489421105395
N        1.1466447047511164       -0.7444257323781279        0.2188835672523513        0.4308753055723465
O        1.4680969293254915       -0.3579139290225042       -0.1168491366668508       -0.7095764258838037
N        1.6149078135634609       -0.0765790570035703       -0.0574121239926553        0.9977500474782615
O        1.5976837133304420       -0.1796723927147227        0.1588507503317524       -0.9963537733476465
O        1.9445168609395815       -1.6910896858121185        0.4158545036924212       -0.1586318904925156
N        1.9506939293999590       -1.5682599932367149        0.5403559150425510        0.3123697133706422

        RMSE         4.070078416E+00 kcal/mol

Coordinates in bohr
s                   x[bohr]                   y[bohr]                   z[bohr]                      q[e]
+       -4.5524691631392473        0.1281647786691180       -0.5640652591143930        0.1158659338886357
-       -2.0596255306671032        2.2033987845740111       -0.7740538708129828       -0.2341991647481463
+       -3.8000270474395950        4.5708216270329558       -0.0134958519795962        0.0569852111266852
+       -2.3841219907758240        2.7992139406088312        0.1437208611653908        0.3189271149812888
-       -2.3729703070228676        2.1797855492196283        0.6720029208810678       -0.2877498234141676
+       -0.7773702215960151        2.2751774114225980        0.5613197153501128        0.5692545008206258
-       -0.5248649659023983        1.1746894040744664       -0.7347647171487337       -0.2058946535748549
-       -0.8071891022363138        1.7020180201545443        0.5932713082617929       -0.9992971180892700
+       -0.5943235132401771        0.7526014110908832        0.1500698389448971        0.6691943173322236
+        1.4863102509028239        3.1797778731507824        0.9249436867443072        0.0628076875181509
+       -1.6939026997515509       -3.5952502693730426       -0.2437828059391048        0.7576134719858190
-       -1.2262602764490513       -3.0943668174344987       -0.2861839663179297       -0.9235083265987739
+       -0.5960711245910566       -2.6552418203473880       -0.0233035834161263        0.9955526175656415
-       -1.4299149316059896       -3.3529993712396933       -0.0926037542156734       -0.9936641819349231
-        0.5487857535329406       -1.1383241192579747        0.5079372829251962       -0.9934394819660318
+        0.0442881552140965       -1.6707922031816993        0.0636067852023755        0.8475065253219278
+        0.9246906223343363       -0.7291161497836792        0.4127582001367710        0.9207393412409772
-        1.0617794974128252       -1.2530207508343032       -0.1235879984000551       -0.6738758902636315
+        5.4523975825784490        0.2712586622555650       -0.4868698353855341        0.1207489421105395
+        2.1668444551860624       -1.4067607549380259        0.4136299954701738        0.4308753055723465
-        2.7743011220507960       -0.6763593023390849       -0.2208128662965402       -0.7095764258838037
+        3.0517334854968516       -0.1447134446825711       -0.1084931906269449        0.9977500474782615
-        3.0191846532990114       -0.3395316145365302        0.3001844129504913       -0.9963537733476465
-        3.6746043135107738       -3.1956963597714307        0.7858511200168672       -0.1586318904925156
+        3.6862772811590907       -2.9635818807297372        1.0211246897015793        0.3123697133706422
