25
s                      x[A]                      y[A]                      z[A]                      q[e]
N 2.1605304163028194 0.9148123939925143 -0.2956277494109248 0.1158659338886357
O 1.4916646580634478 -0.6137807305650633 -0.6550938216963877 -0.2341991647481463
N 2.9279984694471475 -1.3321001630990263 -0.6332033186514635 0.0569852111266852
N 1.8550630275436435 -0.9162940511655997 -0.2802689816284843 0.3189271149812888
O 1.7426761489474447 -0.7085888842694770 0.0805393867105392 -0.2877498234141676
N 1.0133496924696375 -1.1396241280363155 0.0207311011095557 0.5692545008206258
O 0.5543492882992065 -0.5900521054684497 -0.4411460825022658 -0.2058946535748549
O 0.8941855097731893 -0.8790457421659599 0.1228732561850832 -0.9992971180892700
N 0.5367088270235734 -0.4590119386345130 0.0612663497567658 0.6691943173322236
N 0.2076309407471213 -2.1632647412896415 0.0864172156673432 0.0628076875181509
N -0.0738743319762283 1.8349351275174226 0.3156766754793492 0.7576134719858190
O -0.1607395469122693 1.4873052500539812 0.2460771265026739 -0.9235083265987739
N -0.3294102204068315 1.1055141965288962 0.3424611961044958 0.9955526175656415
O -0.1186375790471786 1.6398528715072400 0.3714347817718009 -0.9936641819349231
O -0.4547609301281181 0.0468561540135427 0.4728745946688194 -0.9934394819660318
N -0.3954542942601359 0.4618525448610516 0.2945999152700678 0.8475065253219278
N -0.5289498611483845 -0.2268859482920753 0.3816060289087091 0.9207393412409772
O -0.7612344230202384 0.0175029554147567 0.1652141397227123 -0.6738758902636315
N -2.8068961570135422 -0.0251377950822999 -0.5299275847443260 0.1207489421105395
N -1.2708120489570878 -0.2565163968737741 0.4729981177532939 0.4308753055723465
O -1.4908816694966678 -0.0342102006129211 0.2049917995680525 -0.7095764258838037
N -1.5810294137547194 -0.1211476225196792 -0.0953893687474049 0.9977500474782615
O -1.5630882136403286 -0.3298721942424608 0.0265678297153268 -0.9963537733476465
O -2.1602097821068362 -0.5351839944504471 1.4606900606821602 -0.1586318904925156
N -2.1336056775948977 -0.6657308480688831 1.3466972389818157 0.3123697133706422
