25
s                      x[A]                      y[A]                      z[A]                      q[e]
N 1.4503005555284478 0.0036961143606040 -0.0761853466440495 0.1158659338886357
O 0.2452338852075593 -0.4397437381009131 0.2275348990623948 -0.2341991647481463
N -0.8526932793492852 -0.0061801521532993 0.2338825570812075 0.0569852111266852
N -0.0987320556846271 0.0322165240872603 0.3792164313429617 0.3189271149812888
O 0.1780225106024141 0.3398191834888233 0.2577979835363405 -0.2877498234141676
N -0.0246491121998166 0.1142897891150025 -0.5355154463879421 0.5692545008206258
O 0.2911896990592696 0.4968303241733354 -0.4692806687772770 -0.2058946535748549
O 0.2703978882207129 0.1680305521517477 -0.5864410332285666 -0.9992971180892700
N 0.1211709211154213 0.0189397011908258 -0.3569635690186546 0.6691943173322236
N 1.0581614182046393 0.0207308005366425 -0.3499365711453475 0.0628076875181509
N -1.0092547491829817 -0.0037143224816029 0.3280624885553565 0.7576134719858190
O -0.9996390662597787 0.0743795996322250 -0.0283713376448069 -0.9235083265987739
N -1.1014004587427888 0.0110580175766602 -0.4396365680835245 0.9955526175656415
O -1.0237526807085959 -0.0526703160885953 0.1266601003194956 -0.9936641819349231
O -0.3156563352421206 -0.1171692948323534 0.4977409716051298 -0.9934394819660318
N -0.7007732658199021 0.0536622740943819 0.6710114758161519 0.8475065253219278
N -0.0519133091177962 -0.0189365527598359 0.3999727164696566 0.9207393412409772
O -0.3145589063124373 0.2559579975454704 0.2736486089872571 -0.6738758902636315
N -0.4466438805758326 0.0228657989417613 0.3089496930856107 0.1207489421105395
N -0.1520479271447918 0.0761224594706970 -0.3352325783651862 0.4308753055723465
O -0.0853962529815195 0.2121528475729795 0.6654995627274005 -0.7095764258838037
N 0.0241296047390396 0.0076973252543917 0.4372111414590907 0.9977500474782615
O -0.1258413532510817 -0.1258787812859490 0.5729591701016098 -0.9963537733476465
O -1.0539816926786094 0.3707265526518380 0.0821259654394867 -0.1586318904925156
N -1.0469289754431792 0.2015975330999510 0.0364066403047418 0.3123697133706422
