25
s                      x[A]                      y[A]                      z[A]                      q[e]
N        2.1604223450392723        0.9147490690013016       -0.2956281790502009        0.1158659338886357
O        1.4917477278381901       -0.6137377766080414       -0.6550556879008796       -0.2341991647481463
N        2.9279843232649498       -1.3321078298408517       -0.6332078444584931        0.0569852111266852
N        1.8549696157689841       -0.9163561374567648       -0.2803039493299724        0.3189271149812888
O        1.7427629916220657       -0.7085275827136426        0.0805647086807907       -0.2877498234141676
N        1.0132101727604950       -1.1396714335738465        0.0206656188761185        0.5692545008206258
O        0.5544181036070348       -0.5900419233707017       -0.4411070151551669       -0.2058946535748549
O        0.8944284622027753       -0.8789648649931928        0.1229696282821514       -0.9992971180892700
N        0.5364994714244398       -0.4590427693276384        0.0611762665361018        0.6691943173322236
N        0.2076304873318595       -2.1632591888531976        0.0864072490951967        0.0628076875181509
N       -0.0743865811078643        1.8350556138322809        0.3156176526266498        0.7576134719858190
O       -0.1601856293533603        1.4871046976279552        0.2461559175749241       -0.9235083265987739
N       -0.3298303236940606        1.1056962322884389        0.3423298433837064        0.9955526175656415
O       -0.1180134310806412        1.6396365064249703        0.3714935822854288       -0.9936641819349231
O       -0.4545094794289363        0.0467776483812792        0.4730141002255560       -0.9934394819660318
N       -0.3957272779180298        0.4619472810201646        0.2944664556630059        0.8475065253219278
N       -0.5291540173373972       -0.2268184881914764        0.3814658498642992        0.9207393412409772
O       -0.7610712629082945        0.0174257843922997        0.1653363111206047       -0.6738758902636315
N       -2.8069070158148510       -0.0251217016107983       -0.5299519770677535        0.1207489421105395
N       -1.2708817104342094       -0.2564616648195256        0.4729133446437423        0.4308753055723465
O       -1.4907697742794441       -0.0343110775137093        0.2051313099580300       -0.7095764258838037
N       -1.5811653406367776       -0.1210205078712243       -0.0955776313832320        0.9977500474782615
O       -1.5629477414043997       -0.3299823694652253        0.0267531098106254       -0.9963537733476465
O       -2.1602097553583191       -0.5352108717631140        1.4607286185190862       -0.1586318904925156
N       -2.1335905367208854       -0.6656807876171854        1.3466130719389882        0.3123697133706422

        RMSE         3.947360325E+00 kcal/mol

Coordinates in bohr
s                   x[bohr]                   y[bohr]                   z[bohr]                      q[e]
+        4.0826065474435795        1.7286252139299851       -0.5586562933726892        0.1158659338886357
-        2.8189946538881818       -1.1597963106366163       -1.2378758470560416       -0.2341991647481463
+        5.5330884706047350       -2.5173189679771886       -1.1965894065180513        0.0569852111266852
+        3.5053845448491185       -1.7316621331756732       -0.5296976961178562        0.3189271149812888
-        3.2933447557492599       -1.3389230836614527        0.1522452347839892       -0.2877498234141676
+        1.9146897340451468       -2.1536668824624736        0.0390523598889556        0.5692545008206258
-        1.0476983748129987       -1.1150176377090009       -0.8335714506614411       -0.2058946535748549
-        1.6902248323776541       -1.6610028687371492        0.2323789192026193       -0.9992971180892700
+        1.0138370674450794       -0.8674651139009496        0.1156063891312431        0.6691943173322236
+        0.3923647563525556       -4.0879674053125976        0.1632860360441354        0.0628076875181509
+       -0.1405702657030189        3.4677525351269125        0.5964309238242536        0.7576134719858190
-       -0.3027069687119493        2.8102205983986108        0.4651672683773778       -0.9235083265987739
+       -0.6232889796528783        2.0894630569757506        0.6469096485660767        0.9955526175656415
-       -0.2230130638680045        3.0984639424456684        0.7020211278846922       -0.9936641819349231
-       -0.8588984375450982        0.0883969442335834        0.8938671029061607       -0.9934394819660318
+       -0.7478161756380115        0.8729538455280141        0.5564609543373515        0.8475065253219278
+       -0.9999561709534441       -0.4286248228722809        0.7208659824585396        0.9207393412409772
-       -1.4382162488529875        0.0329299600227239        0.3124403466114304       -0.6738758902636315
+       -5.3042855195161929       -0.0474731358498816       -1.0014640963029617        0.1207489421105395
+       -2.4016183705740559       -0.4846423081878662        0.8936767024509217        0.4308753055723465
-       -2.8171465894987349       -0.0648385395702650        0.3876419955770768       -0.7095764258838037
+       -2.9879694528697449       -0.2286956154404273       -0.1806155470342716        0.9977500474782615
-       -2.9535431796572000       -0.6235763045189138        0.0505560505463810       -0.9963537733476465
-       -4.0822048111694791       -1.0114019669998160        2.7603770326194388       -0.1586318904925156
+       -4.0319017782710471       -1.2579543755755391        2.5447299029261279        0.3123697133706422
