21
s                      x[A]                      y[A]                      z[A]                      q[e]
N 2.0442431328784303 -1.5815077736317873 -0.4627708347118069 0.0690680479201058
O 1.8727669885124190 0.1050602445095569 0.4349671635543766 -0.3117950550350966
N 1.9909224189186767 0.3075808576797518 0.1286773516536910 0.5776243102962968
N 3.3247652236991492 0.4856523948083457 0.1509221817573712 0.0604184539076988
O 1.8595811057973270 0.3201933642803637 -0.2017289523709537 -0.3968494342195521
O 0.9414845052301161 0.0063490922104583 0.0788004813730764 -0.9828651838991298
N 0.7525971990121150 -0.0746437637321523 0.0718495238269328 0.7759263489545838
N 1.0887993766138306 1.2717680834822174 0.0768619455351573 0.9970342621901004
O 1.1185357970682688 1.2555648681857547 -0.2064130406141388 -0.3970377457969525
O 1.1666291610047095 1.2335486792716241 0.3439668670089262 -0.3893757401670396
N -1.7183284301336523 1.3462390240666680 0.0020283687825287 0.1691966627363242
O -1.3955848029699185 0.9639353154506951 0.0215906455681025 -0.6800109224217911
O -0.4054146524364977 -0.4457253525269926 -0.3539562390340390 -0.9821368279659007
N -0.2748031084039482 -0.4620296540981452 -0.2361240604187058 0.8921713087406896
O -0.5992994597468403 -0.5169771951368968 0.3132395821617297 -0.3335771210350215
N -0.7996577411099317 0.1772406255514601 -0.0512466345058926 0.9988617281482304
N -2.3823348013859702 -1.5682956497746188 -0.1249907057468675 0.0655379221577991
N -1.1506420508468473 -1.0018055041550376 -0.0601905851026234 0.9908754307264420
O -1.0109979219073848 -1.0527807925274284 -0.4137837732725514 -0.6595771554465193
O -1.0826958532192834 -1.1484013367930521 0.2917063045255539 -0.5578053818499882
N 0.0163927470381873 -2.2833772224103517 -0.1850167818353790 0.0943160920587207
