21
s                      x[A]                      y[A]                      z[A]                      q[e]
N -1.5126308313533172 0.4630063983372216 1.7723066901456339 0.0707249461841811
O -1.4764235227423499 -0.3596084723736573 0.4269355499110830 -0.3496602100029151
N -1.4361887277448298 0.1837182407705471 0.3746128727019368 0.9824851761690530
N -3.0518820902287125 -0.5113466375867309 0.2585627609024250 0.1071394941056757
O -1.5555024869967906 0.2483669266895043 0.2430836894626086 -0.8194842575378962
N -0.5163860808664638 -0.4595908514009488 -0.6607376043356012 0.3116552922920345
N -1.2780452302900478 -0.9276010795608672 -1.6167187540610375 0.0918298459672651
N -1.3288168140673153 -0.6404301687354129 -0.8091029770802413 0.5593901217632046
O -1.0041335469900396 -0.5176182043646576 -0.7357641511699595 -0.9963138680841535
N 0.9356251313219721 0.8111265197908097 -0.2363715453814682 0.9989733053171830
O 0.9325723685862669 0.9105525372082461 -0.2583676811093305 -0.8354521971080898
N 0.8770365543763181 1.6888207172276042 -0.2141383344612123 0.2899344186932475
O 0.8093685142999245 1.3075116193673484 -0.2074961058143436 -0.8678253524624289
N 0.5034315435557555 -0.4277664426447274 -0.3042076547485450 0.9219570073558310
O 0.6930671938226192 -0.2841238633512487 -0.4240326643456759 -0.9704818863270434
O 0.6261813562069946 -0.2982200591976050 0.2474655629555805 -0.3320651923316272
N 0.6965722567640824 0.2967780798623371 -0.2106910718225704 0.9769593393400061
O 1.5206798907572994 -0.7858974363704085 -0.1403707235798733 -0.1970026432733326
O 1.0651658071557906 -0.6287283151778338 0.7413637302652212 -0.1946060569702309
N 2.4792356585700248 -0.3836309478489531 0.8946846052140973 0.1283355164991325
N 1.1810381405343582 -2.0797672786280819 0.4489931539703580 0.1235072004109040
