25
s                      x[A]                      y[A]                      z[A]                      q[e]
N 1.9487080306816151 1.2736381270452506 0.0184832472444731 0.1158659338886357
O 1.8123482441661629 -0.3606555719174047 -0.3405943800555715 -0.2341991647481463
N 3.2590179947798785 -0.7183467631642022 0.2562499472759112 0.0569852111266852
N 2.0681212821296953 -0.5704592292205687 0.1655660397595033 0.3189271149812888
O 1.7909436454273460 -0.3852054822311181 0.4411411912576186 -0.2877498234141676
N 1.2451269938078409 -0.9873320243683946 0.1697231194698751 0.5692545008206258
O 0.8486278783880229 -0.5444759106160447 -0.5275712048990506 -0.2058946535748549
O 1.0469611395717642 -0.7476996409008830 0.1965871060822698 -0.9992971180892700
N 0.6473320848719128 -0.4400917121002592 -0.0609794676665628 0.6691943173322236
N 0.7221549802669089 -2.1710390904936689 0.0445356961125317 0.0628076875181509
N -0.5197314293813258 1.6409265766145218 -0.1168039521721781 0.7576134719858190
O -0.4827567296864375 1.2886701835677521 -0.1918040546488952 -0.9235083265987739
N -0.5964590937184984 0.8717384061311763 -0.1314319883050008 0.9955526175656415
O -0.5147332076517372 1.4438470166165485 -0.0674416186796297 -0.9936641819349231
O -0.4882441507912619 -0.1834981226690102 0.0082672660309566 -0.9934394819660318
N -0.4840740635695946 0.2283476817089162 -0.1641401666915432 0.8475065253219278
N -0.4651946220668390 -0.4752104468682562 -0.0862778917949312 0.9207393412409772
O -0.6713003665155546 -0.2810627945461702 -0.3748748315402094 -0.6738758902636315
N -2.8444174720702002 -0.0107781358842032 0.1534485551885619 0.1207489421105395
N -1.1681718052335999 -0.6854367766915223 -0.2206288554031910 0.4308753055723465
O -1.1437047855598412 -1.0848145709133807 0.3451797288932427 -0.7095764258838037
N -1.5654839426478728 -0.2210144295452634 0.0457933836666740 0.9977500474782615
O -1.5348596631445417 -0.3950204203277798 -0.1324552372647792 -0.9963537733476465
O -1.8234744065306490 -1.9153165409529658 0.1238264276886659 -0.1586318904925156
N -1.8309345819038170 -1.8376306030867005 -0.0314248623520135 0.3123697133706422
