25
s                      x[A]                      y[A]                      z[A]                      q[e]
N        1.9486762361376748        1.2735581848145150        0.0185052943434267        0.1158659338886357
O        1.8123533205103888       -0.3605331614455601       -0.3406393553893591       -0.2341991647481463
N        3.2590123086313603       -0.7183679644857840        0.2562587982870038        0.0569852111266852
N        2.0681004132912206       -0.5706187459788692        0.1656324781774534        0.3189271149812888
O        1.7909618555331377       -0.3850532640236438        0.4410728514346959       -0.2877498234141676
N        1.2450852036197828       -0.9876384755749074        0.1698715325555551        0.5692545008206258
O        0.8486231673076242       -0.5443624945754963       -0.5276216384898902       -0.2058946535748549
O        1.0470029486186705       -0.7471564963263095        0.1963300688787993       -0.9992971180892700
N        0.6473390204434926       -0.4404622113601910       -0.0607997831642513        0.6691943173322236
N        0.7221457634651175       -2.1710743549021720        0.0445577916108856        0.0628076875181509
N       -0.5197309686724695        1.6407438455251699       -0.1166401291407716        0.7576134719858190
O       -0.4827925374255865        1.2889189404456607       -0.1920112141427663       -0.9235083265987739
N       -0.5963762950305804        0.8713790362418847       -0.1311834099663331        0.9955526175656415
O       -0.5147547015154438        1.4440793055576921       -0.0676469935545202       -0.9936641819349231
O       -0.4883558840077667       -0.1829752060867351        0.0079791049623135       -0.9934394819660318
N       -0.4839827098794693        0.2279454782648866       -0.1639021425216797        0.8475065253219278
N       -0.4650880671329629       -0.4757243791581933       -0.0859946737888857        0.9207393412409772
O       -0.6713974482119790       -0.2807077959392811       -0.3750859883134748       -0.6738758902636315
N       -2.8443829120222355       -0.0108373792065336        0.1534788517932065        0.1207489421105395
N       -1.1680890988640893       -0.6856849190939172       -0.2204776814140298        0.4308753055723465
O       -1.1438349999103941       -1.0843455186137108        0.3449038094617610       -0.7095764258838037
N       -1.5652767737369193       -0.2215242079444871        0.0460823706680426        0.9977500474782615
O       -1.5350620048133488       -0.3945027978855111       -0.1327630939023165       -0.9963537733476465
O       -1.8235168648181845       -1.9152087658480126        0.1237414532233416       -0.1586318904925156
N       -1.8308443363209796       -1.8378224981118498       -0.0312736014499064        0.3123697133706422

        RMSE         6.475015167E+00 kcal/mol

Coordinates in bohr
s                   x[bohr]                   y[bohr]                   z[bohr]                      q[e]
+        3.6824643934881922        2.4066761741346379        0.0349699381800603        0.1158659338886357
-        3.4248514183287262       -0.6813089342775800       -0.6437150892383857       -0.2341991647481463
+        6.1586407028093122       -1.3575187101807473        0.4842589460013788        0.0569852111266852
+        3.9081433810665511       -1.0783131519522531        0.3130000212362572        0.3189271149812888
-        3.3844274080993988       -0.7276452127182905        0.8335068905863241       -0.2877498234141676
+        2.3528700377012832       -1.8663662298012456        0.3210106730417925        0.5692545008206258
-        1.6036653699299870       -1.0286960277187107       -0.9970603946112110       -0.2058946535748549
-        1.9785488254360819       -1.4119211509133629        0.3710100603732019       -0.9992971180892700
+        1.2232934589603470       -0.8323529480842808       -0.1148949386676566        0.6691943173322236
+        1.3646577156087216       -4.1027359287701355        0.0842020228997962        0.0628076875181509
+       -0.9821491897098696        3.1005565100730568       -0.2204178993140910        0.7576134719858190
-       -0.9123456711492072        2.4357037953575875       -0.3628486077464632       -0.9235083265987739
+       -1.1269878653230334        1.6466677299625532       -0.2479007170400245        0.9955526175656415
-       -0.9727454076559805        2.7289143909453686       -0.1278342910286542       -0.9936641819349231
-       -0.9228588725305296       -0.3457730272531335        0.0150783231050541       -0.9934394819660318
+       -0.9145947711291097        0.4307545254571358       -0.3097301607417305        0.8475065253219278
+       -0.8788890710998443       -0.8989887878124434       -0.1625063817090809        0.9207393412409772
-       -1.2687572984518960       -0.5304608556061443       -0.7088097914091430       -0.6738758902636315
+       -5.3751046996542335       -0.0204796786180800        0.2900329959388924        0.1207489421105395
+       -2.2073684869859616       -1.2957567054442125       -0.4166424346484599        0.4308753055723465
-       -2.1615348825437244       -2.0491160555474468        0.6517737395098185       -0.7095764258838037
+       -2.9579444129029979       -0.4186200831740498        0.0870830597744316        0.9977500474782615
-       -2.9008467746934556       -0.7455022437304596       -0.2508858870438183       -0.9963537733476465
-       -3.4459474596598740       -3.6192200405288335        0.2338374569582663       -0.1586318904925156
+       -3.4597943739922536       -3.4729811886361328       -0.0590985416970440        0.3123697133706422
