30
s                      x[A]                      y[A]                      z[A]                      q[e]
N        3.1278236414985101       -1.0059776423319846       -0.2091068199643964        0.2137068255539760
N        2.4226252162375981       -0.6664529492162756        0.1472544985796566        0.4524136045707061
O        2.6335997610239552       -0.7891011057699610        0.6100669892803012       -0.5303393512711568
N        2.7259492188170489       -1.1684625513573508        1.1747954864856180        0.2065219334641430
N        3.8761591121266723        0.3094445033366470       -0.0141237115842554        0.0640972179527254
N        2.9028539932019526       -1.4501731576493833       -0.8157124808508267        0.2729192555687945
O        2.9113274174407660       -1.0948023246796648       -0.4776742931297030       -0.5760168259183410
O        1.7044902659414309        1.4674764490942342        0.0031665327755077       -0.7855321009151053
O        1.1194385774744600        1.4332899901316445       -0.0746614456680151       -0.7445427033607991
N        1.4304262177528424        1.4840202480516360       -0.0400443701164404        0.9977538426035523
N        1.8772244941258576        0.0930987994488700       -0.0836813305976199        0.2084365764815679
N        1.1155395142711684        0.2062060525033365       -0.0857902450966807        0.3300899125146088
N        0.3317349453426024       -1.1785557421823054        0.0242298785006605        0.6266498413516267
O        0.6142780050202055       -1.1109043981449349       -0.2620339237622290       -0.5811225412727979
N        0.3131150639889348       -1.7477025236782366        0.2719424160419260        0.5003074335780895
O        0.2617128527423242       -1.6054604385225033        0.2505794956407105       -0.5967490130385100
N        0.1964262379139859       -1.0159842116104332       -1.2561428695549461        0.9708061175491041
O        0.0686444156709034       -0.6825519066732663       -1.3858919658682329       -0.1568654630532827
O        0.1826640559618219       -1.0625592298617470       -1.1033306840259696       -0.7813807259506527
N       -0.7462060293720498        0.3166107095943294       -0.2048398872240040        0.1400529194232831
N       -0.8288484003727615        0.0369000754922123        0.4070761226433602        0.1778327620465852
N       -1.1330491418682707        0.2487945123283776        0.8213680398902332        0.7120624373414439
O       -1.1168922576693689        0.2820543226592432        1.0311624197540836       -0.9970019554920370
N       -1.7404212961740915       -0.6941523595941016       -0.0525823273187203        0.9931708722557875
N       -2.3209325418816564       -1.2165638227573263       -0.1372320412183299        0.8506195801821621
O       -2.0600653356957146       -1.1003824267479496       -0.1308497529214813       -0.8089940633040810
O       -2.2339546861524338       -1.0514741440755015       -0.0917775801942726       -0.9883399134133223
N       -1.5245421686701874        1.3330867576169989       -1.0811057301092817        0.2529889584625400
N       -1.3970148929658286        0.7047098047874338       -0.5378830518066154        0.5419198115726583
O       -1.4377256537476319        1.0007173691314935       -0.8299594252108018       -0.9654652454832693

        RMSE         1.211557779E+00 kcal/mol

Coordinates in bohr
s                   x[bohr]                   y[bohr]                   z[bohr]                      q[e]
+        5.9107300511643741       -1.9010222323412223       -0.3951546206981265        0.2137068255539760
+        4.5780981633171089       -1.2594135495224152        0.2782706730571697        0.4524136045707061
-        4.9767822724064610       -1.4911849752011561        1.1528595279223861       -0.5303393512711568
+        5.1512974554699351       -2.2080742099190949        2.2200417228818115        0.2065219334641430
+        7.3248791406171918        0.5847653623345839       -0.0266899467691987        0.0640972179527254
+        5.4855990293433106       -2.7404301024477133       -1.5414731859258255        0.2729192555687945
-        5.5016114804994833       -2.0688765551591262       -0.9026735911868005       -0.5760168259183410
-        3.2210197861380836        2.7731285843474591        0.0059838797129954       -0.7855321009151053
-        2.1154323256988339        2.7085255397089614       -0.1410896844432983       -0.7445427033607991
+        2.7031137942273746        2.8043918334515832       -0.0756728923865401        0.9977538426035523
+        3.5474401698989881        0.1759312335672884       -0.1581347966433959        0.2084365764815679
+        2.1080641640987627        0.3896729646430836       -0.1621200674686278        0.3300899125146088
+        0.6268881929412404       -2.2271475763102431        0.0457878344193672        0.6266498413516267
-        1.1608171943807972       -2.0993050640604882       -0.4951723514897090       -0.5811225412727979
+        0.5917017166942898       -3.3026791185233422        0.5138966882145496        0.5003074335780895
-        0.4945656151952675       -3.0338805340649557        0.4735266194162965       -0.5967490130385100
+        0.3711917935114541       -1.9199319077329100       -2.3737659979055463        0.9708061175491041
-        0.1297191456600930       -1.2898361700215246       -2.6189562549633085       -0.1568654630532827
-        0.3451850387331455       -2.0079459365160930       -2.0849928186231308       -0.7813807259506527
+       -1.4101250286785141        0.5983075295201457       -0.3870912864230356        0.1400529194232831
+       -1.5662964762283373        0.0697310366889997        0.7692623840092329        0.1778327620465852
+       -2.1411525648160441        0.4701534898174748        1.5521606435966613        0.7120624373414439
-       -2.1106204786393827        0.5330054223274838        1.9486145641996031       -0.9970019554920370
+       -3.2889195926833570       -1.3117578489731707       -0.0993661976715607        0.9931708722557875
+       -4.3859268598190111       -2.2989724391513664       -0.2593309735401836        0.8506195801821621
-       -3.8929592850142427       -2.0794214198202852       -0.2472701966054251       -0.8089940633040810
-       -4.2215625335111975       -1.9869981603028837       -0.1734344910244179       -0.9883399134133223
+       -2.8809671654981881        2.5191688733707100       -2.0429937425696694        0.2529889584625400
+       -2.6399755408911978        1.3317085289730999       -1.0164516554399476        0.5419198115726583
-       -2.7169077291278354        1.8910817566472085       -1.5683960088908147       -0.9654652454832693
