21
s                      x[A]                      y[A]                      z[A]                      q[e]
N        1.7021012217635827        0.0632097164867401       -1.7908170601195095        0.0707249461841811
O        1.6301889042430051       -0.3853202540991546       -0.2648549805351392       -0.3496602100029151
N        1.4618758569691288        0.1131624684381085       -0.4157313582469599        0.9824851761690530
N        3.1343637389649439       -0.1789377862845455        0.0853752223648274        0.1071394941056757
O        1.5332122951711828        0.2463052966800051       -0.3019651823152292       -0.8194842575378962
N        0.5940546468065901       -0.2537006931317415        0.5367639849495744        0.3116552922920345
N        1.1121121548522623       -0.3215990196746583        1.8109760470225618        0.0918298459672651
N        1.4233897741579549       -0.3116680102118873        0.6904881929825274        0.5593901217632046
O        1.0853252933348969       -0.2397317548969259        0.6109199897033857       -0.9963138680841535
N       -1.0103539680282525        0.7771485056923757        0.0259060178093668        0.9989733053171830
O       -1.0197517972923276        0.8776311937659695        0.0399296566776005       -0.8354521971080898
N       -1.0635086938518428        1.6506003979540287       -0.0665307835290875        0.2899344186932475
O       -0.9479485712808088        1.2816199740900647       -0.0436650360211930       -0.8678253524624289
N       -0.4231642420694401       -0.3905212732069354        0.1871124783198342        0.9219570073558310
O       -0.6291596990286389       -0.2628081849728948        0.2973470294320362       -0.9704818863270434
O       -0.5618957416826710       -0.3220906915103099       -0.3716683338671104       -0.3320651923316272
N       -0.7067364047259557        0.2940064423147106        0.0386397156855672        0.9769593393400061
O       -1.3900684030736690       -0.8432142239868436        0.3943305531106820       -0.1970026432733326
O       -1.1432369749260423       -0.8150428044230077       -0.5792901823890226       -0.1946060569702309
N       -2.5811914877353304       -0.7325522287731520       -0.4583587425885674        0.1283355164991325
N       -1.0101235089954614       -2.1904753911825185       -0.0318533350891408        0.1235072004109040

        RMSE         1.246580191E+00 kcal/mol

Coordinates in bohr
s                   x[bohr]                   y[bohr]                   z[bohr]                      q[e]
+        3.2165051469403307        0.1194490526277752       -3.3841537844234191        0.0707249461841811
-        3.0806105617794763       -0.7281497508392213       -0.5005033761748771       -0.3496602100029151
+        2.7625449990906139        0.2138460730287905       -0.7856184088513478        0.9824851761690530
+        5.9230890442097346       -0.3381434095734951        0.1613357881695858        0.1071394941056757
-        2.8973513300581435        0.4654495539748469       -0.5706314939997247       -0.8194842575378962
+        1.1226005860200361       -0.4794248278578113        1.0143369255640633        0.3116552922920345
+        2.1015873934635221       -0.6077340694008279        3.4222487486368793        0.0918298459672651
+        2.6898168429358051       -0.5889671813668605        1.3048335775992486        0.5593901217632046
-        2.0509675614351357       -0.4530273603305735        1.1544714651069152       -0.9963138680841535
+       -1.9092922893429720        1.4685978345673940        0.0489552786609362        0.9989733053171830
-       -1.9270516128258868        1.6584825953762941        0.0754561154042233       -0.8354521971080898
+       -2.0097401634233583        3.1191826947048158       -0.1257249597820960        0.2899344186932475
-       -1.7913631807397665        2.4219107479465802       -0.0825149593383055       -0.8678253524624289
+       -0.7996645235981815       -0.7379782525262000        0.3535913386801522        0.9219570073558310
-       -1.1889395203396032       -0.4966354931274328        0.5619044498449967       -0.9704818863270434
-       -1.0618290628412466       -0.6086631945138105       -0.7023513605140610       -0.3320651923316272
+       -1.3355382478227757        0.5555916550950185        0.0730184802112790        0.9769593393400061
-       -2.6268485774617552       -1.5934439484255873        0.7451767482794914       -0.1970026432733326
-       -2.1604047791071181       -1.5402076808845728       -1.0946997918817662       -0.1946060569702309
+       -4.8777449891828129       -1.3843230849749850       -0.8661724907016155        0.1283355164991325
+       -1.9088567848878590       -4.1393985738900616       -0.0601940795009119        0.1235072004109040
