25
s                      x[A]                      y[A]                      z[A]                      q[e]
N 2.0333581464231472 1.4176020709369936 -0.0120241057443806 0.1158659338886357
O 1.8410874806106028 -0.2057330597153526 -0.4177965336279129 -0.2341991647481463
N 3.3450477842150557 -0.5787004905854658 -0.0169695603450131 0.0569852111266852
N 2.1486388119366189 -0.4332598596589442 0.0000364103534156 0.3189271149812888
O 1.9078361374431794 -0.2524767818774712 0.3712381335574746 -0.2877498234141676
N 1.3587661919860183 -0.8019862750899251 -0.1039073670725188 0.5692545008206258
O 0.7470937014085670 -0.6778977082904505 0.4844045191214269 -0.2058946535748549
O 1.0764123748838146 -0.7177253629574768 -0.1735695514171536 -0.9992971180892700
N 0.5571953510286087 -0.6457471232807275 0.0231288173269061 0.6691943173322236
N 0.8160041244000047 -2.0470642379553547 0.0095210140185760 0.0628076875181509
N -1.7232877590522246 -1.0701277403656140 -0.0052608866214233 0.7576134719858190
O -1.4618701329447508 -0.8528663734999883 0.0729915060456807 -0.9235083265987739
N -1.1986830227205090 -0.5069929061245668 0.0065139334619453 0.9955526175656415
O -1.5914899870646015 -0.9331759737049805 -0.0500940445382665 -0.9936641819349231
O -0.3430281383585947 0.1151569967612442 -0.1107142717707393 -0.9934394819660318
N -0.6517590834296453 -0.1662148913517905 0.0487130727038529 0.8475065253219278
N -0.1252606149471703 0.2715174461615512 -0.0206177340766869 0.9207393412409772
O -0.4087244501425306 0.3286086762138504 0.2500959572193598 -0.6738758902636315
N -2.0788101473115024 1.7304839207866722 0.0216944010123445 0.1207489421105395
N -0.4382680785934714 0.9540788371829469 0.0738097762147863 0.4308753055723465
O -0.8010642346235194 0.9613420439427620 -0.2037524887382281 -0.7095764258838037
N -1.0448606100192295 0.9249778683011036 -0.0101677739535428 0.9977500474782615
O -0.8770328239341167 1.0244776452110020 0.1241319794085946 -0.9963537733476465
O -0.0201425462040318 2.2464836957262353 -0.3663434309757657 -0.1586318904925156
N -0.0766203977280162 2.2147283682038807 -0.2007699777679223 0.3123697133706422
