25
s                      x[A]                      y[A]                      z[A]                      q[e]
N       -1.9343781340162503        1.2970638201048634        0.0036099621718947        0.1158659338886357
O       -1.7771604112417505       -0.3367668146386838        0.4398852808047485       -0.2341991647481463
N       -3.2848485332015178       -0.6803271097390606        0.0061716835439428        0.0569852111266852
N       -2.0901948496350813       -0.5450030917002477       -0.0324953395488000        0.3189271149812888
O       -1.8386932125133131       -0.3773518335861347       -0.3394183521788509       -0.2877498234141676
N       -1.2782599674549375       -0.9724586378967406       -0.1147448469665554        0.5692545008206258
O       -0.8263326238952932       -0.5374653888884157        0.4969389439737076       -0.2058946535748549
O       -1.0755516303741628       -0.7516625755123626       -0.1668743576057660       -0.9992971180892700
N       -0.6543935128228101       -0.4295669050577293        0.0181957075547760        0.6691943173322236
N       -0.7586727124196461       -2.1670712261823870       -0.0208111957229933        0.0628076875181509
N        0.5325837558981484        1.6291055562342953       -0.0046901690727546        0.7576134719858190
O        0.5191082031668591        1.2752255419695622        0.0753103342372249       -0.9235083265987739
N        0.6034541268956727        0.8594033897944230        0.0098465208092067        0.9955526175656415
O        0.5480448017414021        1.4294182423263022       -0.0514930834187956       -0.9936641819349231
O        0.4825053019942281       -0.2016334003985845       -0.1159533122084373       -0.9934394819660318
N        0.4876596300888926        0.2194188299441771        0.0525784800082149        0.8475065253219278
N        0.4556528655697100       -0.4825748472896262       -0.0198049986690101        0.9207393412409772
O        0.6841051389848529       -0.2984708008848558        0.2564251005391605       -0.6738758902636315
N        2.8511002571558453       -0.0222845089228779        0.0228447173136221        0.1207489421105395
N        1.1636956645799885       -0.7067066720506644        0.0756496881567065        0.4308753055723465
O        1.4229863253389501       -0.4378138973876395       -0.2117698698752839       -0.7095764258838037
N        1.5643254207356680       -0.2315661275033953       -0.0078529770277532        0.9977500474782615
O        1.5234027027200172       -0.4264925934759362        0.1259221280982062       -0.9963537733476465
O        1.8340610969291538       -1.8833499350040781       -0.3706854608079742       -0.1586318904925156
N        1.8275008625311628       -1.8382541975290048       -0.2014408856332802        0.3123697133706422

        RMSE         3.504487382E-01 kcal/mol

Coordinates in bohr
s                   x[bohr]                   y[bohr]                   z[bohr]                      q[e]
+       -3.6554448963648722        2.4510953872382930        0.0068218398281440        0.1158659338886357
-       -3.3583464582529139       -0.6363970478099346        0.8312627073410861       -0.2341991647481463
+       -6.2074640913627341       -1.2856319131311178        0.0116627916310468        0.0569852111266852
+       -3.9498958146528103       -1.0299065808412466       -0.0614072921009903        0.3189271149812888
-       -3.4746266003883903       -0.7130916184171334       -0.6414077275722204       -0.2877498234141676
+       -2.4155612556264687       -1.8376804939606046       -0.2168363350743602        0.5692545008206258
-       -1.5615423476930530       -1.0156623869117907        0.9390785051845392       -0.2058946535748549
-       -2.0324980151968166       -1.4204364064746291       -0.3153468332366082       -0.9992971180892700
+       -1.2366245175113866       -0.8117638031196536        0.0343849039374505        0.6691943173322236
+       -1.4336836453313588       -4.0951711118447873       -0.0393274602597566        0.0628076875181509
+        1.0064374375151859        3.0785633307444549       -0.0088631350295987        0.7576134719858190
-        0.9809723334638837        2.4098270225109997        0.1423159061250450       -0.9235083265987739
+        1.1403630291100961        1.6240370380015385        0.0186072276180220        0.9955526175656415
-        1.0356545797720835        2.7012089967300219       -0.0973078250168773       -0.9936641819349231
-        0.9118028748504120       -0.3810319044981040       -0.2191200034136520       -0.9934394819660318
+        0.9215431433100807        0.4146414953629000        0.0993589273083859        0.8475065253219278
+        0.8610591242068046       -0.9119342964120284       -0.0374260233994859        0.9207393412409772
-        1.2927713536996353       -0.5640280701184335        0.4845732117120017       -0.6738758902636315
+        5.3877986422469331       -0.0421116187045605        0.0431702591362504        0.1207489421105395
+        2.1990660994388143       -1.3354820612094980        0.1429571920924660        0.4308753055723465
-        2.6890544351622467       -0.8273483599819351       -0.4001870556881287       -0.7095764258838037
+        2.9561466162820009       -0.4375965609142646       -0.0148399758519654        0.9977500474782615
-        2.8788138869230817       -0.8059541962057415        0.2379583352404276       -0.9963537733476465
-        3.4658731705528640       -3.5590155755565092       -0.7004939996162027       -0.1586318904925156
+        3.4534761242218535       -3.4737969823030754       -0.3806681043165721        0.3123697133706422
