21
s                      x[A]                      y[A]                      z[A]                      q[e]
N 1.9247945455807054 1.3933161043188869 0.5132567161166233 0.0707249461841811
O 1.6645765872572227 -0.0123042210156370 -0.1905307009615144 -0.3496602100029151
N 1.4548909548261630 0.1027792677363761 0.3017674839961664 0.9824851761690530
N 3.0407696688590913 -0.6569980207913652 0.0971063389663952 0.1071394941056757
O 1.4859811115554411 -0.0384731388394434 0.4235833970128876 -0.8194842575378962
N 0.5112670183044561 -0.6235096057268341 -0.0355077829878405 0.3116552922920345
N 0.7938990848159310 -1.9398708061012213 -0.5028611190265523 0.0918298459672651
N 1.2753959043326279 -0.9545854879918599 -0.1813781046437531 0.5593901217632046
O 0.9739544631248327 -0.7725183078632010 -0.1392101346575454 -0.9963138680841535
N -0.7418678977245343 0.8777411295508175 0.0191324168070881 0.9989733053171830
O -0.7150814143293873 0.9751050991631109 0.0326937260972864 -0.8354521971080898
N -0.5573685760372767 1.7331089508214761 -0.0735410435875420 0.2899344186932475
O -0.5580785484200161 1.3458723234312213 -0.0823148203013258 -0.8678253524624289
N -0.5166518813041832 -0.4098852785275060 -0.0035029872403077 0.9219570073558310
O -0.6233774738513014 -0.2369293551474352 0.1685077197717627 -0.9704818863270434
O -0.8115187970735593 -0.2589627316147753 -0.4793517524584938 -0.3320651923316272
N -0.6133084946348869 0.3372775246292058 -0.0620791897331597 0.9769593393400061
O -1.4043124360900210 -0.5633826081818523 0.6159209449020475 -0.1970026432733326
O -1.5705367833158159 -0.5445465759352811 -0.3748667791404720 -0.1946060569702309
N -2.7392988839161800 -0.0420132350019760 0.3055479032541030 0.1283355164991325
N -1.6548684750055043 -1.9280273761439406 0.1567933270496834 0.1235072004109040
