21
s                      x[A]                      y[A]                      z[A]                      q[e]
N 1.4472538916224249 -0.5131434346227214 0.0428197058111645 0.0707249461841811
O 0.5730568562740030 -0.1907484547572957 0.3037759509827589 -0.3496602100029151
N 0.7812349267428059 0.3015793811364502 0.1860020559351733 0.9824851761690530
N -0.6988400079476851 0.0970092632258278 0.0543005649083302 0.1071394941056757
O 0.6447707897721825 0.4233531587869767 0.1381538098405655 -0.8194842575378962
N -0.0272790975405521 0.0355689236896517 -0.5692847145859875 0.3116552922920345
N 0.9744748968835006 -0.5027279433598122 -0.1537208782429930 0.0918298459672651
N -0.0239011921769866 -0.1813906797240370 -0.5226128756544495 0.5593901217632046
O 0.2894843909004009 -0.1393111011604493 -0.6833707621497448 -0.9963138680841535
N 1.2435793958322985 -0.0188602367369054 -0.2177084857034494 0.9989733053171830
O -1.2042699238821513 -0.0328946425501659 -0.2945225379759028 -0.8354521971080898
N -1.0234442061593294 0.0732029531298736 0.4583294382498909 0.2899344186932475
O -1.0360328175973079 0.0820935292595167 0.0712809605658098 -0.8678253524624289
N -0.1335679415726319 0.0033664075783317 0.3653030714783849 0.9219570073558310
O -0.3357774056728414 -0.1685678153847722 0.3449237378069009 -0.9704818863270434
O -0.3983570659409633 0.4792484136397144 0.1660283072876430 -0.3320651923316272
N -0.8477503081105164 0.0618533517768530 0.6051762565886155 0.9769593393400061
O -0.3837020566065315 -0.6160848668916014 -0.5000839313972270 -0.1970026432733326
O -0.2577731193921627 -0.3748741845457871 0.5816547028169737 -0.1946060569702309
N -0.3847392738223558 -0.3055101751823748 0.3950058739995960 0.1283355164991325
N -0.8942959252666026 0.1572291388192587 0.1340907333237190 0.1235072004109040
