21
s                      x[A]                      y[A]                      z[A]                      q[e]
N       -1.8226239135873417        1.1536689866490279       -1.2963245054896131        0.0707249461841811
O       -1.6885053532373102        0.2924077498875562        0.0460836791974650       -0.3496602100029151
N       -1.4794807389757132        0.1261752233847652       -0.4310025591539572        0.9824851761690530
N       -3.1312350596041152       -0.2522633185093143        0.0930338524907863        0.1071394941056757
O       -1.5268320909634192       -0.0467515105599940       -0.4717924118576955       -0.8194842575378962
N       -0.6178683855177365       -0.1788854103817187        0.4467096374083613        0.3116552922920345
N       -0.9943044013577943       -1.3091961420207638        1.2877021071486550        0.0918298459672651
N       -1.4269191037866320       -0.4032816590078085        0.5469643455236678        0.5593901217632046
O       -1.0820375666565716       -0.3487444795417710        0.4799704898373173       -0.9963138680841535
N        1.2174632549139168       -0.5838150155639633       -0.0791476333048415        0.9989733053171830
O        1.2571391585335190       -0.6727466815687420       -0.0813167039875136       -0.8354521971080898
N        1.5375648514863236       -1.3754605686674028       -0.2869889570287782        0.2899344186932475
O        1.3145927492956699       -1.0621885094503483       -0.2242054243409930       -0.8678253524624289
N        0.3011503346987606        0.3120011804731571        0.1974208468217468        0.9219570073558310
O        0.5326930633834045        0.2422946199389428        0.3001539350516416       -0.9704818863270434
O        0.4681038732766959        0.3785822494421437       -0.3567350336425782       -0.3320651923316272
N        0.7837685289243648       -0.2255615311476528       -0.0228273676599813        0.9769593393400061
O        1.0856829825706427        0.9680836203064982        0.5743740539120352       -0.1970026432733326
O        0.8781410519122326        1.0678233800811809       -0.4037123643334763       -0.1946060569702309
N        2.2718516175327004        1.3749229437711932       -0.1858963851678919        0.1283355164991325
N        0.3325563082683158        2.2022473471314732        0.3798427127225581        0.1235072004109040

        RMSE         1.551666488E+00 kcal/mol

Coordinates in bohr
s                   x[bohr]                   y[bohr]                   z[bohr]                      q[e]
+       -3.4442600263901904        2.1801184242011264       -2.4496982850949216        0.0707249461841811
-       -3.1908126789879439        0.5525705642488532        0.0870855325366670       -0.3496602100029151
+       -2.7958134045540590        0.2384366160156683       -0.8144767961724160        0.9824851761690530
+       -5.9171766970833959       -0.4767085834817406        0.1758085016038288        0.1071394941056757
-       -2.8852944914809764       -0.0883475509098382       -0.8915584464802468       -0.8194842575378962
+       -1.1676020302073158       -0.3380444334615788        0.8441588723043739        0.3116552922920345
+       -1.8789630039035299       -2.4740221529252344        2.4334043136859087        0.0918298459672651
+       -2.6964863093404685       -0.7620918869450309        1.0336128134300175        0.5593901217632046
-       -2.0447546584377396       -0.6590315540992776        0.9070127740943694       -0.9963138680841535
+        2.3006721195957520       -1.1032504873457900       -0.1495673504243150        0.9989733053171830
-        2.3756487112168614       -1.2713069799755101       -0.1536662999613251       -0.8354521971080898
+        2.9055764694393913       -2.5992437711478722       -0.5423305298151763        0.2899344186932475
-        2.4842202626814602       -2.0072453764694322       -0.4236868478465330       -0.8678253524624289
+        0.5690916551706170        0.5895967819138078        0.3730713319490629        0.9219570073558310
-        1.0066439987257823        0.4578704733564954        0.5672087327260592       -0.9704818863270434
-        0.8845881187589728        0.7154167674054113       -0.6741315129404574       -0.3320651923316272
+        1.4811078654200216       -0.4262495183079891       -0.0431374730424978        0.9769593393400061
-        2.0516434961287193        1.8294129089209861        1.0854096554626960       -0.1970026432733326
-        1.6594460876355648        2.0178937387140921       -0.7629058020513193       -0.1946060569702309
+        4.2931773548151693        2.5982278073358080       -0.3512932556799365        0.1283355164991325
+        0.6284403439204436        4.1616443465945396        0.7177986977965906        0.1235072004109040
