23
s                      x[A]                      y[A]                      z[A]                      q[e]
N       -1.8700512841832255        1.3777797111067749       -0.1215733551692771        0.2856065124296451
O       -1.7957917544067961        1.1853324323590171       -0.0908407679054944       -0.2980193526493612
N       -2.6972780007267398       -0.4286927064696768       -0.1989941557368897        0.9235469647741466
O       -2.6148714381978002       -0.3745572966854714       -0.2021406507978812       -0.9987019282037162
O       -1.5227294827124269       -0.0380154171528126       -0.0475396303071126       -0.9994297377915048
N       -1.6797561382746093       -0.4183348279915260       -0.0555797738525071        0.3910255639585828
N       -2.0738333648431464        0.1036079999907100       -0.1513943102172677        0.3788084070601841
N       -1.3091846276906647        0.4784252981524867       -0.0160731299861250        0.3521750120262308
N       -1.0903965867327934       -0.5987826750794959        0.1360587946430221        0.5091785922378865
N       -0.6831393353494823       -0.0226123348889076        0.2051520450647281        0.9946620798872232
O       -0.8312360810915235       -0.0808546503059183        0.1381046783489457       -0.5088390984708862
O       -0.8409651923300561       -0.3476715487501845        0.1366917348868604       -0.9513197152299744
N       -0.6077917287495000       -1.8357057161526735        0.1204159298758762        0.0534150746794947
N       -0.1685878897668777       -1.7865160251805545        0.2179172897549026        0.0449830180293293
O       -0.8111811891713888       -0.1336719388628085        0.5040358923017501       -0.1594766348608674
O        0.3847195559755689        1.3580875669357331       -0.0079275436613279       -0.2085098172073890
N        0.4751579069290110        1.2951696113670699        0.2992728533141544        0.7433887315217406
O        0.4630440376551323        1.2758603434572056        0.4636095108997184       -0.4563903046399361
N        0.6639983274622726       -0.1952954070271334       -0.0397553803203899        0.2740207269363132
N        1.3683278215351806        0.0951566274407288        0.0185824520869822        0.2947455612059413
O        1.8185681354170025       -0.4728906903539017       -0.1808680940479522       -0.8294346811293033
N        1.9838600281110177       -0.2846302990339065       -0.1693215049265429        0.8271270632704910
O        2.0519033360308008        0.0549463965928225       -0.1054089029294244       -0.6625620378342709

        RMSE         3.509688152E-01 kcal/mol

Coordinates in bohr
s                   x[bohr]                   y[bohr]                   z[bohr]                      q[e]
+       -3.5338847676670029        2.6036263152042114       -0.2297403454229464        0.2856065124296451
-       -3.3935545941842706        2.2399536647813085       -0.1716641723676637       -0.2980193526493612
+       -5.0971167055959787       -0.8101118072089724       -0.3760444549094242        0.9235469647741466
-       -4.9413908714758676       -0.7078107090273942       -0.3819904688298040       -0.9987019282037162
-       -2.8775416854865576       -0.0718387269638475       -0.0898368813859574       -0.9994297377915048
+       -3.1742790588956815       -0.7905382536444934       -0.1050305506961206        0.3910255639585828
+       -3.9189770893902094        0.1957907443888791       -0.2860937832632379        0.3788084070601841
+       -2.4740003939948290        0.9040927849987050       -0.0303738136526601        0.3521750120262308
+       -2.0605509170590022       -1.1315352645692494        0.2571138588352204        0.5091785922378865
+       -1.2909462493378132       -0.0427311199971703        0.3876811792499185        0.9946620798872232
-       -1.5708085388618338       -0.1527931450478505        0.2609800187239528       -0.5088390984708862
-       -1.5891938945467741       -0.6570040087516085        0.2583099425498554       -0.9513197152299744
+       -1.1485599086551079       -3.4689810504659793        0.2275531286077410        0.0534150746794947
+       -0.3185849397282733       -3.3760260063327689        0.4118039956388030        0.0449830180293293
-       -1.5329102856571222       -0.2526033551096508        0.9524897938510652       -0.1594766348608674
-        0.7270145959015678        2.5664135558979115       -0.0149808863675189       -0.2085098172073890
+        0.8979183104416113        2.4475158514994142        0.5655437295480659        0.7433887315217406
-        0.8750264151943818        2.4110266234666788        0.8760950047579237       -0.4563903046399361
+        1.2547749866657587       -0.3690548328410943       -0.0751267808189529        0.2740207269363132
+        2.5857648325458276        0.1798199648852025        0.0351157451838386        0.2947455612059413
-        3.4365957164226391       -0.8936338920475562       -0.3417911625841787       -0.8294346811293033
+        3.7489521243728916       -0.5378733121812471       -0.3199712714615244        0.8271270632704910
-        3.8775353410114772        0.1038336411412237       -0.1991939577215814       -0.6625620378342709
