23
s                      x[A]                      y[A]                      z[A]                      q[e]
N -1.8712024791763333 1.3783753921877187 -0.1210336511059487 0.2856065124296451
O -1.7957558012559893 1.1863027493997078 -0.0912796383146741 -0.2980193526493612
N -2.7002859355030675 -0.4307053785242674 -0.1999958314353457 0.9235469647741466
O -2.6173777215113989 -0.3763469552365495 -0.2021710489079371 -0.9987019282037162
O -1.5228043752182421 -0.0382898753945405 -0.0469447775497222 -0.9994297377915048
N -1.6807248407236508 -0.4189282483060196 -0.0564962362111546 0.3910255639585828
N -2.0749256042988860 0.1033374873857822 -0.1519163124802069 0.3788084070601841
N -1.3103300993739573 0.4785627236111456 -0.0162333070670341 0.3521750120262308
N -1.0914704684857015 -0.5992102336705987 0.1350526653087379 0.5091785922378865
N -0.6844330807787062 -0.0223624297887131 0.2048602283150829 0.9946620798872232
O -0.8304200987979294 -0.0809164501158098 0.1390761183962604 -0.5088390984708862
O -0.8402883177542567 -0.3481348370988424 0.1379897614886886 -0.9513197152299744
N -0.6081507509136936 -1.8358115519594025 0.1196301392757825 0.0534150746794947
N -0.1688099474149654 -1.7865952700152909 0.2173068262746309 0.0449830180293293
O -0.8103848231404713 -0.1340092830863951 0.5049575190942897 -0.1594766348608674
O 0.3854607303224979 1.3587342823416881 -0.0080024109414006 -0.2085098172073890
N 0.4748090411867493 1.2965552038800450 0.2996492549830165 0.7433887315217406
O 0.4643797679913795 1.2766790945637083 0.4646108557530240 -0.4563903046399361
N 0.6632876215508534 -0.1956071730093160 -0.0406487318535425 0.2740207269363132
N 1.3680072992248722 0.0949316532828060 0.0180024557405189 0.2947455612059413
O 1.8204603515791260 -0.4745528874738519 -0.1810917659053183 -0.8294346811293033
N 1.9851049207282694 -0.2857424271132720 -0.1698694607382945 0.8271270632704910
O 2.0537003720056761 0.0552584252009343 -0.1051093882616610 -0.6625620378342709
