21
s                      x[A]                      y[A]                      z[A]                      q[e]
N 0.0604664926770466 0.0383020864322693 0.2203310450616998 0.0690680479201058
O 0.7258151840026721 -0.4120305827000165 -0.1684847033019209 -0.3117950550350966
N 0.7520007673546889 -0.0668933810259434 -0.0043110299308654 0.5776243102962968
N 1.5335272398153055 -0.1157358529383130 1.0989986100998164 0.0604184539076988
O 0.7136460547951992 0.2595378465045266 -0.1352467728282092 -0.3968494342195521
O 0.1582109684143627 -0.0822679366368071 0.4620711003629109 -0.9828651838991298
N 0.1515872620738444 -0.0679854303385375 0.2441815680509900 0.7759263489545838
N -0.6637653960450343 -0.0348811390905087 0.0054199260129492 0.9970342621901004
O -0.6548631871487529 0.2451117204888900 0.0234628063280419 -0.3970377457969525
O -0.6441911594959163 -0.3066904200132444 0.0378626948857464 -0.3893757401670396
N -0.9681958722818973 0.2344500501747345 -0.4366090407810787 0.1691966627363242
O -0.0820690554872239 0.1410087748099396 -0.7238606717824706 -0.6800109224217911
O -0.3311539471365986 0.4064773965789813 -0.8494535707466574 -0.9821368279659007
N -0.1735228362589231 0.2789682396968768 -0.7959676379297417 0.8921713087406896
O 0.8399827631346427 -0.2537625598031110 0.6832199094232008 -0.3335771210350215
N 0.3707653690503486 0.1498320486478299 0.2436302998164311 0.9988617281482304
N -0.1572989965954462 0.3170073679565161 0.5179448170659889 0.0655379221577991
N 1.0008952093959225 0.2082191876900132 -0.1552070855484967 0.9908754307264420
O 1.1294220835930209 -0.1443182166489230 -0.1198802442876019 -0.6595771554465193
O 1.0776143771034115 0.5727543684794134 -0.1813284773102724 -0.5578053818499882
N -0.1541862497720527 -0.1144632732294604 -0.0397712664808035 0.0943160920587207
