21
s                      x[A]                      y[A]                      z[A]                      q[e]
N       -1.9809216129453697        1.3664622386661744       -0.9784899984540997        0.0690680479201058
O       -1.8855127881820255       -0.0618673632157132        0.3353773000915314       -0.3117950550350966
N       -1.9796312976747019       -0.3069442283777490        0.0569709455609064        0.5776243102962968
N       -3.3292177783071657       -0.4452992981615849        0.0738328614389553        0.0604184539076988
O       -1.8121775126654922       -0.4043125287675334       -0.2387663799614789       -0.3968494342195521
O       -0.8994351444238964       -0.0985127210849540        0.3569606309763241       -0.9828651838991298
N       -0.7351160805619009        0.0490979720319746        0.3328879090927980        0.7759263489545838
N       -1.0515311222347448       -1.2084127996625624        0.6441666485863882        0.9970342621901004
O       -1.0298669700141496       -1.3499455101145066        0.4027240971051436       -0.3970377457969525
O       -1.1214565976314721       -1.0950075128506107        0.8837661783187538       -0.3893757401670396
N        1.7000516257979139       -1.2924483534352986       -0.3492690410882013        0.1691966627363242
O        1.4064639899481175       -0.9717209131794029       -0.2328805084036056       -0.6800109224217911
O        0.3387125141453789        0.4286334903218288       -0.2547832818835388       -0.9821368279659007
N        0.2092868798829606        0.5117562998448860       -0.1026013416568180        0.8921713087406896
O        0.6426782800298954        0.4566601357745175        0.3762602739793235       -0.3335771210350215
N        0.7595651251364338       -0.1200016412859456       -0.0921102549942082        0.9988617281482304
N        2.3169444368077703        1.6433619451818937       -0.1252376505592906        0.0655379221577991
N        1.1147349206949968        1.0716880503750432        0.0523603379059390        0.9908754307264420
O        0.9181564772142274        1.0914896584451412       -0.2686386797928004       -0.6595771554465193
O        1.1171621517460286        1.0574439636998645        0.4246093209612399       -0.5578053818499882
N       -0.0717681209899463        2.2431030670671115        0.3858244424407803        0.0943160920587207

        RMSE         5.653383950E-01 kcal/mol

Coordinates in bohr
s                   x[bohr]                   y[bohr]                   z[bohr]                      q[e]
+       -3.7433993244669250        2.5822393918590598       -1.8490781135779020        0.0690680479201058
-       -3.5631027757124056       -0.1169123725819219        0.6337712458684769       -0.3117950550350966
+       -3.7409609819898670       -0.5800405274239263        0.1076594842184805        0.5776243102962968
+       -6.2913098130057188       -0.8414937173839820        0.1395238871785017        0.0604184539076988
-       -3.4245191896511651       -0.7640399484619276       -0.4512030660941971       -0.3968494342195521
-       -1.6996860905727718       -0.1861620627241778        0.6745578301158704       -0.9828651838991298
+       -1.3891680626819858        0.0927817204558202        0.6290669786616908        0.7759263489545838
+       -1.9871058334189862       -2.2835692378599810        1.2172985449823097        0.9970342621901004
-       -1.9461665189818322       -2.5510272984078779        0.7610382476510053       -0.3970377457969525
-       -2.1192458311112405       -2.0692643046063974        1.6700760359649707       -0.3893757401670396
+        3.2126319718973733       -2.4423734192916364       -0.6600228317579776        0.1691966627363242
-        2.6578317463206140       -1.8362863962888556       -0.4400803808401948       -0.6800109224217911
-        0.6400738870000267        0.8099999049073350       -0.4814706241052095       -0.9821368279659007
+        0.3954948846303850        0.9670792496845110       -0.1938884358359135        0.8921713087406896
-        1.2144859360367952        0.8629625890282246        0.7110288697106478       -0.3335771210350215
+        1.4353700609569635       -0.2267702366358701       -0.1740631552851376        0.9988617281482304
+        4.3783904334698178        3.1055040013934199       -0.2366648601528496        0.0655379221577991
+        2.1065437025974956        2.0251969071346840        0.0989466984786528        0.9908754307264420
-        1.7350642822500506        2.0626165232308251       -0.5076535315129549       -0.6595771554465193
-        2.1111305045271531        1.9982794844113132        0.8023953269333632       -0.5578053818499882
+       -0.1356220932097199        4.2388504679313037        0.7291025287205426        0.0943160920587207
