25
s                      x[A]                      y[A]                      z[A]                      q[e]
N 0.0619036298021107 -0.0026739702635178 0.2441902464046402 0.1158659338886357
O -0.1689661240043991 0.4345634158740079 0.3118112033931818 -0.2341991647481463
N -0.0862088600075577 -0.0096626327297835 -0.3922348772939700 0.0569852111266852
N -0.5103433160182600 -0.0237048858938779 0.1341536746165643 0.3189271149812888
O -0.2398114506142598 -0.3465813119903680 0.2800079481105207 -0.2877498234141676
N 0.0313519575809666 0.1067594863563587 -0.5542856724997706 0.5692545008206258
O -0.1606697900972348 -0.4916581260284528 0.0478729226541467 -0.2058946535748549
O -0.0683769412187739 0.1725617889513333 -0.2680716991722096 -0.9992971180892700
N -0.1871038362149040 -0.0211761278111951 0.2404270481520122 0.6691943173322236
N 0.0178713163183288 -0.0142507099264830 0.3817149273537843 0.0628076875181509
N 0.0556943354700185 0.0081712710588910 0.2890482953422529 0.7576134719858190
O 0.0341040167822661 -0.0777381829325327 -0.0585905770683949 -0.9235083265987739
N 0.1031560066385716 -0.0065146646035033 -0.4793011689086533 0.9955526175656415
O 0.0669482987840762 0.0474145867786562 0.0932054987813236 -0.9936641819349231
O -0.0416320901846831 0.1158237399536743 -0.1237588333124121 -0.9934394819660318
N -0.0300988099510253 -0.0508328096963004 0.2956449677534962 0.8475065253219278
N -0.0819085471867262 0.0171110907033549 -0.4003976142255686 0.9207393412409772
O 0.1576614499735309 -0.2524985439562476 -0.2245411445360219 -0.6738758902636315
N -0.0647721122051217 0.0220149944952617 0.2188694347700776 0.1207489421105395
N 0.2651970705777512 0.0775614052097821 -0.4903904401785071 0.4308753055723465
O 0.3483455946268519 -0.2109658612625999 -0.1270721588501212 -0.7095764258838037
N 0.4503801213418539 -0.0079494838024508 0.0997340521426990 0.9977500474782615
O 0.3052133786948493 0.1237097320686708 -0.0358871771651507 -0.9963537733476465
O -0.0316155118148349 -0.3722523670567325 -0.1416594619848099 -0.1586318904925156
N -0.0312264670567623 -0.1975572945102179 -0.0892417158638772 0.3123697133706422
