25
s                      x[A]                      y[A]                      z[A]                      q[e]
N       -1.6828070890249023        0.5624174314101988       -1.5085112422836673        0.1158659338886357
O       -1.8296116766100912        0.2141076558771682        0.1472489288354528       -0.2341991647481463
N       -3.3545910970819750       -0.2761497553434717       -0.0201518813235597        0.0569852111266852
N       -2.1537484862369922       -0.2800503189476026        0.0668551059215418        0.3189271149812888
O       -1.8430262113551907       -0.5048487943334846       -0.1710939026552525       -0.2877498234141676
N       -1.4581286697650819       -0.4719103478534722        0.4841212481301120        0.5692545008206258
O       -0.7646990266451243       -0.1980089588201323        0.9296989337073363       -0.2058946535748549
O       -1.2153696770181226       -0.3260066095271069        0.3555197633017383       -0.9992971180892700
N       -0.7038732439375929       -0.1213270936431561        0.4333377272015357        0.6691943173322236
N       -1.1259076239818375       -1.0216631150804554        1.7442216678202789        0.0628076875181509
N        0.9200171896529419        1.5681996380944767        0.0395443681350654        0.7576134719858190
O        0.8467197513566884        1.2324124990405110        0.1359407067098522       -0.9235083265987739
N        0.8030410573462928        0.8078612070840593        0.0601163033220739        0.9955526175656415
O        0.8791551878418186        1.3772690352122663        0.0032972698975914       -0.9936641819349231
O        0.4090041466409468       -0.1939484504955715        0.0022279815048726       -0.9934394819660318
N        0.5504359355683072        0.2082006926971042        0.1516058503012457        0.8475065253219278
N        0.3358077455536018       -0.4566037560585641        0.1156389388888098        0.9207393412409772
O        0.6671138539635083       -0.3462978473890994        0.3105712652032723       -0.6738758902636315
N        2.6908822048026502       -0.5922483326566194       -0.4996626781503182        0.1207489421105395
N        0.9606821024993063       -0.8478648598671341        0.0132427201280183        0.4308753055723465
O        1.1946809728594052       -0.6405497762134630       -0.3387285934022501       -0.7095764258838037
N        1.4262976902075053       -0.4822032899228675       -0.1820532208178157        0.9977500474782615
O        1.3783855963280809       -0.6698627502281845       -0.0435661050523736       -0.9963537733476465
O        1.1748874124735134       -2.1311170696415371       -0.5814044242711821       -0.1586318904925156
N        1.2325449122523811       -2.0869900821640242       -0.4131460123434519        0.3123697133706422

        RMSE         6.690620607E-01 kcal/mol

Coordinates in bohr
s                   x[bohr]                   y[bohr]                   z[bohr]                      q[e]
+       -3.1800445202359953        1.0628149135487388       -2.8506731050902898        0.1158659338886357
-       -3.4574649847327885        0.4046048309716190        0.2782601477660356       -0.2341991647481463
+       -6.3392584363840454       -0.5218474072113459       -0.0380815366142564        0.0569852111266852
+       -4.0699947821072939       -0.5292184041580821        0.1263378402801878        0.3189271149812888
-       -3.4828147815014647       -0.9540259560578718       -0.3233206177541692       -0.2877498234141676
+       -2.7554638415341453       -0.8917813132125980        0.9148565704807243        0.5692545008206258
-       -1.4450717287634633       -0.3741827025571072        1.7568763638370388       -0.2058946535748549
-       -2.2967158307503888       -0.6160632070953028        0.6718349848278781       -0.9992971180892700
+       -1.3301276580796202       -0.2292749785833405        0.8188896242392595        0.6691943173322236
+       -2.1276570518906270       -1.9306634799841642        3.2961012542696064        0.0628076875181509
+        1.7385805191574537        2.9634678260406440        0.0747280255795551        0.7576134719858190
-        1.6000684350798904        2.3289220967776241        0.2568907049828080       -0.9235083265987739
+        1.5175276658825676        1.5266364287706435        0.1136033489536702        0.9955526175656415
-        1.6613625267964689        2.6026612776247169        0.0062309370681642       -0.9936641819349231
-        0.7729058213279818       -0.3665094538935458        0.0042102748567945       -0.9934394819660318
+        1.0401731678342518        0.3934422883281347        0.2864935360865125        0.8475065253219278
+        0.6345846699037361       -0.8628560468060417        0.2185259239384051        0.9207393412409772
-        1.2606624784897000       -0.6544080894009892        0.5868946336711153       -0.6738758902636315
+        5.0850304029451303       -1.1191871469800523       -0.9442256168168827        0.1207489421105395
+        1.8154260673526943       -1.6022323765485638        0.0250251141980425        0.4308753055723465
-        2.2576198459997925       -1.2104636467667462       -0.6401042723918142       -0.7095764258838037
+        2.6953120078652786       -0.9112321547489581       -0.3440307276031693        0.9977500474782615
-        2.6047712723359422       -1.2658571395772320       -0.0823280069019107       -0.9963537733476465
-        2.2202154378227457       -4.0272276029107426       -1.0986951300020202       -0.1586318904925156
+        2.3291723214834508       -3.9438396818367356       -0.7807328131541433        0.3123697133706422
