25
s                      x[A]                      y[A]                      z[A]                      q[e]
N 0.0673782168879483 -0.0030065179619824 0.2413664259324674 0.1158659338886357
O -0.1684489198087944 0.4428623033997051 0.3013984720336894 -0.2341991647481463
N -0.0814742054143865 -0.0054818081348956 -0.3914207733106100 0.0569852111266852
N -0.5176167446832670 -0.0349077954538878 0.1473897150299198 0.3189271149812888
O -0.2328540813628304 -0.3379225651623348 0.2670015888638855 -0.2877498234141676
N 0.0287581880999852 0.1215843931642238 -0.5562178191884580 0.5692545008206258
O -0.1554430879084130 -0.4995498419081973 0.0442878992133164 -0.2058946535748549
O -0.0622112697038966 0.1594691248046502 -0.2687934741268736 -0.9992971180892700
N -0.1916286518403136 -0.0131739722198659 0.2398842440203653 0.6691943173322236
N 0.0171551337779925 -0.0219475716178624 0.3836879939343507 0.0628076875181509
N 0.0564928155969798 0.0046420910883944 0.2933734354424062 0.7576134719858190
O 0.0382586388030319 -0.0754285431537829 -0.0578606016881343 -0.9235083265987739
N 0.1043178097412528 -0.0093783081855098 -0.4766122060927505 0.9955526175656415
O 0.0715324218789297 0.0512233704648845 0.0954528331472190 -0.9936641819349231
O -0.0396399878146454 0.1135662027550580 -0.1280395539383589 -0.9934394819660318
N -0.0298993762575938 -0.0511813811861107 0.2984298879903662 0.8475065253219278
N -0.0816033475168765 0.0220584171725196 -0.3987623690845093 0.9207393412409772
O 0.1573040750051780 -0.2572411114173490 -0.2306972360875028 -0.6738758902636315
N -0.0645561900094663 0.0233251911223925 0.2206012605070369 0.1207489421105395
N 0.2654264293791319 0.0747209684739932 -0.4877464079161967 0.4308753055723465
O 0.3467042124034891 -0.2108079172219386 -0.1270800573289318 -0.7095764258838037
N 0.4510067828170395 -0.0078711815758493 0.1035396478116847 0.9977500474782615
O 0.3026962903791244 0.1258542942063838 -0.0372390149256350 -0.9963537733476465
O -0.0327144116080268 -0.3697396985338012 -0.1424927820777693 -0.1586318904925156
N -0.0326178341686118 -0.2022463066894692 -0.0902032650620555 0.3123697133706422
