25
s                      x[A]                      y[A]                      z[A]                      q[e]
N        1.8397951289602565        1.1195354850086392       -1.0836916069567342        0.1158659338886357
O        1.7907006768285074       -0.3929354785721170       -0.3757576679271711       -0.2341991647481463
N        3.3656975092018646       -0.3474700711701575        0.0330134753239340        0.0569852111266852
N        2.1621943694278785       -0.2803177149410400        0.0965476995709640        0.3189271149812888
O        1.9334408483973726        0.0519431079698345        0.2542057693020155       -0.2877498234141676
N        1.4423532406923765       -0.5726446579669413        0.3115827493468232        0.5692545008206258
O        0.6972711603604895       -0.5848853166457141        0.7850385514988500       -0.2058946535748549
O        1.1559973609179774       -0.5614031280252970        0.2104514703830956       -0.9992971180892700
N        0.6076290662426522       -0.5280682438663389        0.2711286059022011        0.6691943173322236
N        0.9762226576259100       -1.5784427633573130        1.2339295470562059        0.0628076875181509
N       -1.5806006223599505       -1.2025420049556121       -0.2617423288692978        0.7576134719858190
O       -1.3636202404391464       -0.9530813453727703       -0.1187323728735502       -0.9235083265987739
N       -1.1363201906451095       -0.5890562343410122       -0.1150649165514682        0.9955526175656415
O       -1.4578887963820706       -1.0403728760789153       -0.2740720157593349       -0.9936641819349231
O       -0.3333762213765128        0.1320139831975047       -0.0253768865111330       -0.9934394819660318
N       -0.6432932214686187       -0.1942271292858416        0.0578845691484093        0.8475065253219278
N       -0.1517742862423574        0.3042991566942610        0.1186082721196304        0.9207393412409772
O       -0.4950813182876412        0.3167516019763454        0.3303164639270685       -0.6738758902636315
N       -2.2188033113570715        1.5754708414137482       -0.1232078134487439        0.1207489421105395
N       -0.5495544532282431        0.9323704746592409        0.2205358404981089        0.4308753055723465
O       -0.8477903988457348        0.9509564025906642       -0.1386254167853378       -0.7095764258838037
N       -1.1297433618436825        0.8649546159987670       -0.0020791824277949        0.9977500474782615
O       -1.0005629378615524        0.9688703590778850        0.1770304095502978       -0.9963537733476465
O       -0.1837951443692823        2.2970746936269242        0.0136532184205890       -0.1586318904925156
N       -0.2513514851565138        2.2363512687208256        0.1641697270811419        0.3123697133706422

        RMSE         8.283590996E-01 kcal/mol

Coordinates in bohr
s                   x[bohr]                   y[bohr]                   z[bohr]                      q[e]
+        3.4767089206862507        2.1156154543979264       -2.0478803416055169        0.1158659338886357
-        3.3839338518778459       -0.7425404394770041       -0.7100790819230823       -0.2341991647481463
+        6.3602465135271027       -0.6566232713049376        0.0623864268117955        0.0569852111266852
+        4.0859551882256770       -0.5297237093527234        0.1824487102321041        0.3189271149812888
-        3.6536736832438632        0.0981582481680729        0.4803792834921242       -0.2877498234141676
+        2.7256526010751467       -1.0821415707639912        0.5888060616826698        0.5692545008206258
-        1.3176515282615118       -1.1052730632620802        1.4835078602589475       -0.2058946535748549
-        2.1845184138870040       -1.0608981579431496        0.3976956417239501       -0.9992971180892700
+        1.1482525210662853       -0.9979043564588561        0.5123588099323489        0.6691943173322236
+        1.8447934603795548       -2.9828245274561627        2.3317889020464571        0.0628076875181509
+       -2.9869022899885009       -2.2724750437250574       -0.4946213170024867        0.7576134719858190
-       -2.5768687935609402       -1.8010627180374195       -0.2243716669567481       -0.9235083265987739
+       -2.1473339511472833       -1.1131549553980193       -0.2174411789309343        0.9955526175656415
-       -2.7550105465354666       -1.9660198041440256       -0.5179210484373048       -0.9936641819349231
-       -0.6299897551416087        0.2494702729740754       -0.0479553654228665       -0.9934394819660318
+       -1.2156480069391773       -0.3670360804841302        0.1093859825806192        0.8475065253219278
+       -0.2868118338848973        0.5750420663599304        0.2241371505198770        0.9207393412409772
-       -0.9355681013942579        0.5985737775353194        0.6242076515518297       -0.6738758902636315
+       -4.1929305847237979        2.9772084089165869       -0.2328290239346257        0.1207489421105395
+       -1.0385074076271033        1.7619248445690836        0.4167523393890769        0.4308753055723465
-       -1.6020916656110973        1.7970471581469705       -0.2619640717517329       -0.7095764258838037
+       -2.1349055459385635        1.6345273351882135       -0.0039290853533969        0.9977500474782615
-       -1.8907899238418131        1.8308996297311864        0.3345389899276967       -0.9963537733476465
-       -0.3473224860469259        4.3408420606748352        0.0258008435459690       -0.1586318904925156
+       -0.4749854681728896        4.2260914182025040        0.3102358222745155        0.3123697133706422
