25
s                      x[A]                      y[A]                      z[A]                      q[e]
N       -2.0256436087582355        1.4028178754230001       -0.2513637019318606        0.1158659338886357
O       -1.8513554164920367       -0.1483404772936759        0.4230621184639658       -0.2341991647481463
N       -3.3469164858651910       -0.5631473113591619        0.0319585441246816        0.0569852111266852
N       -2.1523303561122318       -0.4298012634907744       -0.0070692576999693        0.3189271149812888
O       -1.8949430491007260       -0.2965804553519086       -0.3468146952123580       -0.2877498234141676
N       -1.3675996063888749       -0.7773697039781310        0.2002786662898181        0.5692545008206258
O       -0.7752913220849531       -0.6742773238816974       -0.4367888749476649       -0.2058946535748549
O       -1.0687163092299239       -0.7383351652289322        0.2399056988271927       -0.9992971180892700
N       -0.5607245243315369       -0.6357698707281729        0.0327468145808317        0.6691943173322236
N       -0.8233070727364626       -2.0205409894597586        0.2504831793683060        0.0628076875181509
N        1.7326617682973608       -1.0855983156969391       -0.0614876105874159        0.7576134719858190
O        1.4639971704051209       -0.8524409636826764       -0.1261018817180982       -0.9235083265987739
N        1.2116911462666371       -0.5169360426669916       -0.0387128779041283        0.9955526175656415
O        1.6031179835306146       -0.9377306550431130       -0.0077863216456676       -0.9936641819349231
O        0.3511772958791856        0.1156145015656575        0.1394251247260888       -0.9934394819660318
N        0.6574159619350536       -0.1697966784892010       -0.0478917271534837        0.8475065253219278
N        0.1239391857927583        0.2751043351158492        0.0592056098208653        0.9207393412409772
O        0.3977285479081325        0.3371147519121168       -0.2297730221855920       -0.6738758902636315
N        2.0824000743949971        1.7271833027743571       -0.0541646836085524        0.1207489421105395
N        0.4322530351511318        0.9570532431714643       -0.0328882597672271        0.4308753055723465
O        0.8179866254924063        0.9596660660598660        0.2300377683145256       -0.7095764258838037
N        1.0553559842621538        0.9244087205270426        0.0117384411035307        0.9977500474782615
O        0.8740434443744445        1.0369592379738561       -0.1084755451260302       -0.9963537733476465
O        0.0544990415340766        2.2376957982346362        0.4826670236468034       -0.1586318904925156
N        0.0804939764689581        2.2060291759373687        0.3106247935428271        0.3123697133706422

        RMSE         9.448020798E-01 kcal/mol

Coordinates in bohr
s                   x[bohr]                   y[bohr]                   z[bohr]                      q[e]
+       -3.8279116483371132        2.6509415884460883       -0.4750085545324313        0.1158659338886357
-       -3.4985546980528603       -0.2803228754047432        0.7994715379528908       -0.2341991647481463
+       -6.3247555230649573       -1.0641941867567422        0.0603928957640077        0.0569852111266852
+       -4.0673149045612353       -0.8122066763733002       -0.0133589609632259        0.3189271149812888
-       -3.5809233861403578       -0.5604558347786807       -0.6553847902354869       -0.2877498234141676
+       -2.5843887053588994       -1.4690158387468923        0.3784718280597193        0.5692545008206258
-       -1.4650882661846756       -1.2741994747430330       -0.8254113482979347       -0.2058946535748549
-       -2.0195811302546542       -1.3952512510773354        0.4533560667199635       -0.9992971180892700
+       -1.0596157828142188       -1.2014309344939744        0.0618825110389210        0.6691943173322236
+       -1.5558248846243019       -3.8182690953405163        0.4733446080400271        0.0628076875181509
+        3.2742562101334811       -2.0514834989255211       -0.1161947441190172        0.7576134719858190
-        2.7665537005108929       -1.6108799594816012       -0.2382980203520830       -0.9235083265987739
+        2.2897644150860068       -0.9768675450185965       -0.0731567367670904        0.9955526175656415
-        3.0294539356690748       -1.7720541174776532       -0.0147140154350359       -0.9936641819349231
-        0.6636289106905308        0.2184797440904079        0.2634753007401063       -0.9934394819660318
+        1.2423361185616599       -0.3208692193570063       -0.0905022479952362        0.8475065253219278
+        0.2342111173605469        0.5198718492951256        0.1118823876521517        0.9207393412409772
-        0.7515980278224034        0.6370545539655614       -0.4342080829495143       -0.6738758902636315
+        3.9351658242395509        3.2639034107072407       -0.1023564176922389        0.1207489421105395
+        0.8168398533335348        1.8085685170752599       -0.0621498037029726        0.4308753055723465
-        1.5457706964680884        1.8135060367486668        0.4347083806259741       -0.7095764258838037
+        1.9943337751184527        1.7468793097809965        0.0221824388254900        0.9977500474782615
-        1.6517027316195336        1.9595689630340372       -0.2049890715979388       -0.9963537733476465
-        0.1029882625993559        4.2286322107512007        0.9121084844823357       -0.1586318904925156
+        0.1521115702753779        4.1687909672910495        0.5869957875728246        0.3123697133706422
