25
s                      x[A]                      y[A]                      z[A]                      q[e]
N -1.9381232668406492 1.2925391095855634 0.0148536781590930 0.1158659338886357
O -1.7511595950308605 -0.3363896066298098 0.4881258241754107 -0.2341991647481463
N -3.2781665659619112 -0.6892078114201725 0.1377539971829554 0.0569852111266852
N -2.0878359498084924 -0.5507742940970834 0.0348548900011864 0.3189271149812888
O -1.8534677341394716 -0.3855069561202026 -0.2866860000977446 -0.2877498234141676
N -1.2798985446205962 -0.9766855972699208 -0.0855874613209689 0.5692545008206258
O -0.8101159743985812 -0.5371553838009370 0.4820269634224456 -0.2058946535748549
O -1.0811007073680234 -0.7558824092941805 -0.1508016313555759 -0.9992971180892700
N -0.6527795164775850 -0.4305520329913337 -0.0020853172103881 0.6691943173322236
N -0.7515955068943252 -2.1683218555049661 -0.0065511686825236 0.0628076875181509
N 0.5269677919183269 1.6328445444493989 -0.0672097994023997 0.7576134719858190
O 0.5169928951260603 1.2789555769686403 0.0144025239016390 -0.9235083265987739
N 0.6006900838343328 0.8628543292890338 -0.0520383712778779 0.9955526175656415
O 0.5417564446417011 1.4330008026352787 -0.1140342412277548 -0.9936641819349231
O 0.4797647842643587 -0.1991271863088885 -0.1707526018841869 -0.9934394819660318
N 0.4882477531095922 0.2227138957167271 -0.0036280181355825 0.8475065253219278
N 0.4567906192545043 -0.4799525781756753 -0.0727400285857496 0.9207393412409772
O 0.6926362025334876 -0.2938379424065384 0.1963640954686547 -0.6738758902636315
N 2.8480699208604245 -0.0228035230160221 0.1119694861040059 0.1207489421105395
N 1.1682511890374760 -0.7008566747631315 0.0026528884726075 0.4308753055723465
O 1.4339900953003468 -0.4156428754934549 -0.2192162836407414 -0.7095764258838037
N 1.5647575562330407 -0.2287011391884805 0.0092310030771683 0.9977500474782615
O 1.5183322316372279 -0.4351141044353219 0.1229539705117364 -0.9963537733476465
O 1.8576862274336960 -1.8410522070954565 -0.4887304879594034 -0.1586318904925156
N 1.8430195810337402 -1.8116657772597144 -0.3168374450344663 0.3123697133706422
