25
s                      x[A]                      y[A]                      z[A]                      q[e]
N 0.1104332414096750 0.0186916861219621 0.2199036080260598 0.1158659338886357
O -0.1724872848901362 0.4343831377016963 0.2941108985647938 -0.2341991647481463
N -0.0910218469722334 0.0221563385905165 -0.4062562974464404 0.0569852111266852
N -0.4521596298571703 0.0008636552881524 0.1523986888726018 0.3189271149812888
O -0.2396421872772885 -0.4056409308900354 0.3221411463204708 -0.2877498234141676
N 0.0055878870730423 0.0926660838682667 -0.4699225679109982 0.5692545008206258
O -0.1755184738993177 -0.4287896653643066 0.0495160035668252 -0.2058946535748549
O -0.0448276652128444 0.0967033829245652 -0.1597850114090371 -0.9992971180892700
N -0.1330929072435258 -0.0080691494758020 0.3108596843387584 0.6691943173322236
N 0.0380898770505086 0.0626619908425191 0.4989780738721415 0.0628076875181509
N -0.0235008113945717 -0.0023380336983412 -0.0275147086943836 0.7576134719858190
O -0.0479695622185067 -0.0336687750033933 -0.2677627461476480 -0.9235083265987739
N 0.0124575960507277 -0.0158905445911130 -0.6830992083000055 0.9955526175656415
O -0.0186276777669792 0.0243467939871526 -0.1642528259728309 -0.9936641819349231
O -0.1016399770849299 0.0696750330714188 -0.1361823267510091 -0.9934394819660318
N -0.0842107713358206 -0.0419917074579644 0.2207566326158531 0.8475065253219278
N -0.1370098985325701 0.0072409843101958 -0.3718700853042017 0.9207393412409772
O 0.1115091269637709 -0.1719043615337583 -0.2267834287734065 -0.6738758902636315
N -0.0336606543900010 -0.0067434032918575 0.2458611272222244 0.1207489421105395
N 0.3146348823825658 0.0486609686688839 -0.5306632579733715 0.4308753055723465
O 0.3994687065910542 -0.1517281823633611 -0.2075029946635357 -0.7095764258838037
N 0.5328865425261701 -0.0076061448625198 -0.0348347534468369 0.9977500474782615
O 0.3725204336361962 0.0923842248987897 -0.1635693496610018 -0.9963537733476465
O -0.0174494399148442 -0.3272250316947765 0.0015914428727313 -0.1586318904925156
N 0.0013375748130350 -0.1682369585908765 -0.0438943974271076 0.3123697133706422
