25
s                      x[A]                      y[A]                      z[A]                      q[e]
N -1.8135220085250492 1.1803354064684131 0.7781511951804917 0.1158659338886357
O -1.7208952495503689 -0.4508267156618280 0.4452975451619476 -0.2341991647481463
N -3.2946061976166012 -0.5949721710893391 0.1291666545203131 0.0569852111266852
N -2.0899928021079632 -0.4946758428214094 0.0214480985030363 0.3189271149812888
O -1.9055509681482421 -0.1696542682469417 -0.2817607196627212 -0.2877498234141676
N -1.3307082364808176 -0.8204726569784302 -0.4344744957072617 0.5692545008206258
O -0.9030115184738223 -0.4505120089164889 0.2323728840492916 -0.2058946535748549
O -1.0673540690970111 -0.6772370783553886 -0.4254732460342268 -0.9992971180892700
N -0.6844397465821495 -0.3558198311982938 -0.2287511390269206 0.6691943173322236
N -0.8994805309562881 -1.9824254955325720 -0.8615812690872851 0.0628076875181509
N 0.6406412271617299 1.5900138603993930 -0.1082504623972916 0.7576134719858190
O 0.5809255636366398 1.2538123107313968 -0.0408844680096829 -0.9235083265987739
N 0.6500040383491648 0.8159031525750964 -0.0823098727891853 0.9955526175656415
O 0.6330139762420917 1.3955671270581866 -0.1584107236849651 -0.9936641819349231
O 0.4846954318491146 -0.2074821000877192 -0.2004286372050807 -0.9934394819660318
N 0.4904855887390631 0.1942778498434344 -0.0520582214124817 0.8475065253219278
N 0.4246379194843144 -0.4801524986110208 -0.1205778543564327 0.9207393412409772
O 0.6330947004428132 -0.3103478685343515 0.1728509543470567 -0.6738758902636315
N 2.7876032784666904 -0.1696043277994645 0.4096642128895484 0.1207489421105395
N 1.0820414306944266 -0.7395097574325706 0.1470057390595154 0.4308753055723465
O 1.4091897506976303 -0.5024924499038490 -0.0836021379489886 -0.7095764258838037
N 1.5052403904813720 -0.3070139199375573 0.1282545017375573 0.9977500474782615
O 1.4389266804036309 -0.4814543245458048 0.2488952728219764 -0.9963537733476465
O 1.7392749278576174 -1.9788371231471342 -0.1021143731045851 -0.1586318904925156
N 1.7191236819732512 -1.9089772633784388 0.0525232582885813 0.3123697133706422
