25
s                      x[A]                      y[A]                      z[A]                      q[e]
N       -1.8123141235108831        1.1815604528460280        0.7789017197440530        0.1158659338886357
O       -1.7230352001893623       -0.4517957997250980        0.4454460494083114       -0.2341991647481463
N       -3.2943872103850338       -0.5942246819582200        0.1288420106981144        0.0569852111266852
N       -2.0876740574825838       -0.4938244454666820        0.0213804455922957        0.3189271149812888
O       -1.9069900444270498       -0.1693737819658988       -0.2826967800175293       -0.2877498234141676
N       -1.3273696974348455       -0.8222862149011215       -0.4342172405826695        0.5692545008206258
O       -0.9051265885185752       -0.4504900124812398        0.2320273015363862       -0.2058946535748549
O       -1.0696800725812816       -0.6742816068338079       -0.4249523492778574       -0.9992971180892700
N       -0.6814967348592892       -0.3569340914110953       -0.2274681265909770        0.6691943173322236
N       -0.8983108415593424       -1.9843057333384084       -0.8626899275507576        0.0628076875181509
N        0.6403148597460392        1.5909628128163404       -0.1074171023704142        0.7576134719858190
O        0.5791957715549418        1.2504768656391865       -0.0424262410082088       -0.9235083265987739
N        0.6503305905745840        0.8169666728817009       -0.0810127044793001        0.9955526175656415
O        0.6311351171599794        1.3916692696147606       -0.1593080614264439       -0.9936641819349231
O        0.4826588772694093       -0.2062492682323972       -0.2011293243055595       -0.9934394819660318
N        0.4916034604749691        0.1946970758714064       -0.0508128721629340        0.8475065253219278
N        0.4259185543275352       -0.4808702264951002       -0.1199091133451922        0.9207393412409772
O        0.6315498265871560       -0.3096443978920690        0.1719667184290039       -0.6738758902636315
N        2.7879050320808276       -0.1693667785533775        0.4095339797461051        0.1207489421105395
N        1.0824203584152825       -0.7403282081147530        0.1467393860831022        0.4308753055723465
O        1.4079585894472733       -0.5016860791808460       -0.0836355733716930       -0.7095764258838037
N        1.5051786146644015       -0.3072740805440975        0.1284649753714880        0.9977500474782615
O        1.4374716662408307       -0.4810313435675168        0.2484798783641852       -0.9963537733476465
O        1.7401207634183320       -1.9766481760007422       -0.1014292943626986       -0.1586318904925156
N        1.7177217257775117       -1.9104305275910811        0.0520969788958458        0.3123697133706422

        RMSE         5.702343267E-01 kcal/mol

Coordinates in bohr
s                   x[bohr]                   y[bohr]                   z[bohr]                      q[e]
+       -3.4247773467347207        2.2328256565509212        1.4719109289643684        0.1158659338886357
-       -3.2560646328812970       -0.8537703261126304        0.8417710370488646       -0.2341991647481463
+       -6.2254895788387330       -1.1229219058883173        0.2434761136727437        0.0569852111266852
+       -3.9451322078653863       -0.9331929559881135        0.0404031866096909        0.3189271149812888
-       -3.6036889079417804       -0.3200700607485570       -0.5342194907819297       -0.2877498234141676
+       -2.5083651953836803       -1.5538957429024793       -0.8205516636532777        0.5692545008206258
-       -1.7104413611700691       -0.8513027458436219        0.4384680535327903       -0.2058946535748549
-       -2.0214023790384736       -1.2742075683495304       -0.8030435565050471       -0.9992971180892700
+       -1.2878421842778054       -0.6745076776060993       -0.4298524615279177        0.6691943173322236
+       -1.6975614660766971       -3.7497943851853450       -1.6302476942619877        0.0628076875181509
+        1.2100197189809554        3.0064839920109110       -0.2029889046703496        0.7576134719858190
-        1.0945213812620775        2.3630588022789891       -0.0801739760381825       -0.9235083265987739
+        1.2289467071932099        1.5438432653729095       -0.1530918241485278        0.9955526175656415
-        1.1926725195911003        2.6298737767878273       -0.3010486056735915       -0.9936641819349231
-        0.9120930900601463       -0.3897546305353202       -0.3800793387358959       -0.9934394819660318
+        0.9289959026250239        0.3679241508244416       -0.0960224120358452        0.8475065253219278
+        0.8048694194299725       -0.9087130299626139       -0.2265953841688936        0.9207393412409772
-        1.1934562068301096       -0.5851431082983017        0.3249700005245389       -0.6738758902636315
+        5.2683769744184845       -0.3200568262169481        0.7739070607889319        0.1207489421105395
+        2.0454780300247855       -1.3990175562878289        0.2772972515148812        0.4308753055723465
-        2.6606561300412648       -0.9480492906065493       -0.1580483280181333       -0.7095764258838037
+        2.8443753516117409       -0.5806638576802140        0.2427636201657973        0.9977500474782615
-        2.7164277623006932       -0.9090174971036168        0.4695589177953841       -0.9963537733476465
-        3.2883516680832425       -3.7353236990271657       -0.1916735874439439       -0.1586318904925156
+        3.2460236214682712       -3.6101904788610484        0.0984490220769049        0.3123697133706422
