25
s                      x[A]                      y[A]                      z[A]                      q[e]
N -1.6800490940136812 0.1315652346733764 -1.6450263676664874 0.1158659338886357
O -1.8136312325824642 0.3104634725441633 0.0331735311187858 -0.2341991647481463
N -3.3699581000399643 -0.1401370728283735 0.0246325139118895 0.0569852111266852
N -2.1698826874097334 -0.1612494910957728 0.1124939135448698 0.3189271149812888
O -1.8791347153418214 -0.4694987351653956 -0.0429101970671757 -0.2877498234141676
N -1.4809243784619648 -0.2557539644605008 0.5541408332969027 0.5692545008206258
O -0.7492639235202209 -0.0277112729170269 0.9628896856063236 -0.2058946535748549
O -1.2303297716541601 -0.1402471103564017 0.4105487687146100 -0.9992971180892700
N -0.6994134627848378 0.0182037679029989 0.4615304608942783 0.6691943173322236
N -1.1537168264585711 -0.4058392725234052 1.9374819989210259 0.0628076875181509
N 1.0488348957264437 1.5289605350891677 -0.0674412339742860 0.7576134719858190
O 0.9504023399719770 1.2058340843685924 0.0479628392546635 -0.9235083265987739
N 0.8677031390459824 0.7836314227716863 -0.0050156721263566 0.9955526175656415
O 0.9904402214836001 1.3408441454044873 -0.0927461029067123 -0.9936641819349231
O 0.3868949575711197 -0.1822364336005887 -0.0000304649755773 -0.9934394819660318
N 0.5676111031077617 0.2125921693118428 0.1244391338851072 0.8475065253219278
N 0.2954577430147572 -0.4317977841683026 0.1286782605416233 0.9207393412409772
O 0.6417429936993149 -0.3418439729079528 0.3073527685094686 -0.6738758902636315
N 2.6320746067434184 -0.8052130767376411 -0.4579180564034555 0.1207489421105395
N 0.8890351805485164 -0.8784969186836129 0.0699326591830160 0.4308753055723465
O 1.1375556109290295 -0.7190580656558856 -0.2967220402509894 -0.7095764258838037
N 1.3819383435134982 -0.5682817939912709 -0.1524629616194345 0.9977500474782615
O 1.3195563803045451 -0.7400145006141470 0.0002023296461397 -0.9963537733476465
O 0.9953799537010273 -2.2172469721318886 -0.4218068357015571 -0.1586318904925156
N 1.0571791919790396 -2.1649273260132462 -0.2574110320224183 0.3123697133706422
