25
s                      x[A]                      y[A]                      z[A]                      q[e]
N       -1.6805812610100705        0.1323533272516192       -1.6453322647863788        0.1158659338886357
O       -1.8122753140995149        0.3087437945374958        0.0328990808555870       -0.2341991647481463
N       -3.3703426946722490       -0.1391030411535222        0.0245610340223021        0.0569852111266852
N       -2.1709161495405520       -0.1581387684071321        0.1126664071155093        0.3189271149812888
O       -1.8783826667751218       -0.4727776492525423       -0.0428227953648131       -0.2877498234141676
N       -1.4813750842622564       -0.2524406145691214        0.5553747681786800        0.5692545008206258
O       -0.7488764850980711       -0.0287785738386987        0.9611865531278065       -0.2058946535748549
O       -1.2292988376122995       -0.1428861817374968        0.4093047914719872       -0.9992971180892700
N       -0.6998903865647024        0.0195457105646259        0.4626062096760790        0.6691943173322236
N       -1.1537332969460601       -0.4049683023847023        1.9387740043228467        0.0628076875181509
N        1.0483421648908215        1.5274566599590820       -0.0669994996696670        0.7576134719858190
O        0.9499747428020915        1.2061880584748466        0.0475460621015339       -0.9235083265987739
N        0.8667364501561411        0.7825940438523101       -0.0045615666783023        0.9955526175656415
O        0.9899404328043799        1.3409782889296811       -0.0928703245362942       -0.9936641819349231
O        0.3866207938104505       -0.1827243665750854       -0.0001009743945546       -0.9934394819660318
N        0.5669762652318444        0.2124571479810447        0.1248693022084748        0.8475065253219278
N        0.2956638199101954       -0.4303325698803826        0.1290725224719124        0.9207393412409772
O        0.6413600436024645       -0.3423392417437952        0.3064482634474054       -0.6738758902636315
N        2.6320775118442090       -0.8056397018484673       -0.4579293359700370        0.1207489421105395
N        0.8896699619124981       -0.8775955792788516        0.0699844033108036        0.4308753055723465
O        1.1369572413016105       -0.7191377053397786       -0.2963094375112131       -0.7095764258838037
N        1.3817423777077713       -0.5682188150073498       -0.1522768675763703        0.9977500474782615
O        1.3187334481061681       -0.7400114191897422       -0.0000460598169045       -0.9963537733476465
O        0.9941111543490583       -2.2174045124152277       -0.4210282814180901       -0.1586318904925156
N        1.0590586341527455       -2.1641148971548234       -0.2580627408530838        0.3123697133706422

        RMSE         6.744275558E-01 kcal/mol

Coordinates in bohr
s                   x[bohr]                   y[bohr]                   z[bohr]                      q[e]
+       -3.1758383148855915        0.2501115402986543       -3.1092273658255172        0.1158659338886357
-       -3.4247040075761448        0.5834412146104898        0.0621702525963522       -0.2341991647481463
+       -6.3690246418680854       -0.2628666509984463        0.0464136276602028        0.0569852111266852
+       -4.1024369639650944       -0.2988389621066826        0.2129086529876457        0.3189271149812888
-       -3.5496287990120936       -0.8934202753250670       -0.0809233551660218       -0.2877498234141676
+       -2.7993931983326776       -0.4770436244778987        1.0495062088473366        0.5692545008206258
-       -1.4151714586308550       -0.0543836228364062        1.8163793408843747       -0.2058946535748549
-       -2.3230381294309028       -0.2700157505962628        0.7734739577196826       -0.9992971180892700
+       -1.3226011484480966        0.0369360398946107        0.8741990402239085        0.6691943173322236
+       -2.1802399530495640       -0.7652791809986775        3.6637518873273716        0.0628076875181509
+        1.9810795774132037        2.8864747558292314       -0.1266107049183728        0.7576134719858190
-        1.7951920899981932        2.2793650863151722        0.0898490357159090       -0.9235083265987739
+        1.6378945137466365        1.4788884102953996       -0.0086201117250058        0.9955526175656415
-        1.8707162985174663        2.5340817062621541       -0.1754994785559823       -0.9936641819349231
-        0.7306074147088525       -0.3452990092746719       -0.0001908139513922       -0.9934394819660318
+        1.0714298609231232        0.4014858230800401        0.2359687826510437        0.8475065253219278
+        0.5587236448369546       -0.8132106999383655        0.2439117177939155        0.9207393412409772
-        1.2119948302203489       -0.6469274088926729        0.5791032895377451       -0.6738758902636315
+        4.9739056383620381       -1.5224383922891040       -0.8653610297961341        0.1207489421105395
+        1.6812325700611186       -1.6584152937495424        0.1322513553110028        0.4308753055723465
-        2.1485378024161133       -1.3589733095823731       -0.5599436852846531       -0.7095764258838037
+        2.6111146698065935       -1.0737779396960776       -0.2877615749619490        0.9977500474782615
-        2.4920450494013111       -1.3984189119799804       -0.0000870404393382       -0.9963537733476465
-        1.8785978199824549       -4.1902872378191329       -0.7956281429523756       -0.1586318904925156
+        2.0013307693501274       -4.0895844596459510       -0.4876679033973256        0.3123697133706422
