21
s                      x[A]                      y[A]                      z[A]                      q[e]
N -1.8223197774515840 1.1525608036616599 -1.2913448803027645 0.0707249461841811
O -1.6896710984184464 0.2915369462045909 0.0299743232556705 -0.3496602100029151
N -1.4762909192895108 0.1277204592443410 -0.4120645262847475 0.9824851761690530
N -3.1292843029395883 -0.2518468419551211 0.0993103041191246 0.1071394941056757
O -1.5272571237195702 -0.0472832478143017 -0.4857744831942993 -0.8194842575378962
N -0.6169229107255932 -0.1916968395528602 0.4438584273451815 0.3116552922920345
N -0.9957371378790254 -1.3084728219830313 1.2951239493823039 0.0918298459672651
N -1.4241561230674780 -0.4194189410551487 0.5421285770035735 0.5593901217632046
O -1.0817008026915282 -0.3323166068336395 0.4845162918300359 -0.9963138680841535
N 1.2119349106725605 -0.5879017006537191 -0.0782535816979530 0.9989733053171830
O 1.2563845984477586 -0.6662333378845393 -0.0820543385007812 -0.8354521971080898
N 1.5325280425986669 -1.3766675438886218 -0.2842709911396954 0.2899344186932475
O 1.3155518709739247 -1.0554091214776475 -0.2247969477509156 -0.8678253524624289
N 0.3020868471443378 0.3018234913371644 0.1944213886434802 0.9219570073558310
O 0.5295457502239825 0.2508501824472055 0.3013550632719568 -0.9704818863270434
O 0.4673629982271993 0.3851590153244171 -0.3552016483884007 -0.3320651923316272
N 0.7808847604665560 -0.2326871880032317 -0.0228873879674912 0.9769593393400061
O 1.0819859048958278 0.9715993249670586 0.5748439023324545 -0.1970026432733326
O 0.8759427154763517 1.0710862700088017 -0.4030129980734267 -0.1946060569702309
N 2.2729983663514339 1.3739318831270297 -0.1850132430237511 0.1283355164991325
N 0.3369014933693725 2.1997265430264128 0.3784386071815560 0.1235072004109040
