21
s                      x[A]                      y[A]                      z[A]                      q[e]
N 0.0279768666652993 -0.0473424016087039 0.3739466299754970 0.0707249461841811
O 0.1116619102463332 0.2812236263179915 0.3043957488373298 -0.3496602100029151
N 0.3656103422026156 -0.1691399732359586 0.3255643305532922 0.9824851761690530
N 0.0391102704860332 -0.0151188699108972 -0.1882694957344403 0.1071394941056757
O 0.2656819689241191 -0.3379588342386632 0.3124677046693192 -0.8194842575378962
N 0.0864335855125871 0.1254170320845069 0.2883543992993946 0.3116552922920345
N 0.0295337667752055 -0.0106013126940088 0.2489253220645095 0.0918298459672651
N 0.0714645385894285 0.0380260432546620 -0.5514542572646193 0.5593901217632046
O 0.0667942107556253 0.0602219562962627 -0.1941488305415965 -0.9963138680841535
N 0.2172800735837832 0.0854984321884295 -0.4248911767109781 0.9989733053171830
O 0.2057178632222258 0.0970641384338419 -0.3362423435689249 -0.8354521971080898
N 0.0282780533005651 0.0087257604102202 0.4270236534699745 0.2899344186932475
O 0.0414744031362228 -0.0046053324464088 0.0352699895762069 -0.8678253524624289
N -0.0056075653680646 0.0782900556287976 -0.3397426704210936 0.9219570073558310
O 0.1248749123480302 0.2398815034906340 -0.1892994300747108 -0.9704818863270434
O 0.2622023432019170 -0.4187490613862042 -0.2071663997697109 -0.3320651923316272
N 0.0837547138113314 0.0143803342698327 0.4019460399544131 0.9769593393400061
O 0.1950459470020622 -0.5128399298320581 -0.0988071499551325 -0.1970026432733326
O 0.2265634845406663 0.4906916658380938 -0.0767493365887141 -0.1946060569702309
N 0.0231045509381927 -0.0017064405155830 0.1854319994124834 0.1283355164991325
N 0.0350798355108676 0.0040629476644377 -0.1440005216706723 0.1235072004109040
