21
s                      x[A]                      y[A]                      z[A]                      q[e]
N       -1.8223587989683163        1.1522490774499901       -1.2912852848819867        0.0707249461841811
O       -1.6898779443429763        0.2921081416184722        0.0296719103995022       -0.3496602100029151
N       -1.4761146279973858        0.1270549105271273       -0.4116506550044591        0.9824851761690530
N       -3.1291612980296351       -0.2521495643246540        0.0992922502135561        0.1071394941056757
O       -1.5272621166865796       -0.0466359230320737       -0.4859634356886455       -0.8194842575378962
N       -0.6167666417228951       -0.1920656260489922        0.4443798466835176        0.3116552922920345
N       -0.9956984065333587       -1.3086663938376653        1.2953888590307137        0.0918298459672651
N       -1.4238848389536276       -0.4199573053265644        0.5425294836949917        0.5593901217632046
O       -1.0818656882965021       -0.3317464171902838        0.4839064069517763       -0.9963138680841535
N        1.2117048152639933       -0.5877449848159169       -0.0777352613664121        0.9989733053171830
O        1.2562972216821238       -0.6662253928971972       -0.0825477159952582       -0.8354521971080898
N        1.5323489472166376       -1.3764576882514159       -0.2839174058932841        0.2899344186932475
O        1.3155305677586939       -1.0553899839579537       -0.2252211656332367       -0.8678253524624289
N        0.3022448052700352        0.3015802546269635        0.1950678671144686        0.9219570073558310
O        0.5293160050316863        0.2510134470606980        0.3006226202355957       -0.9704818863270434
O        0.4671579716801090        0.3853390921801685       -0.3556773096601962       -0.3320651923316272
N        0.7808047751327495       -0.2327141562573837       -0.0222780997226762        0.9769593393400061
O        1.0818079400404543        0.9716008524469011        0.5743433908285472       -0.1970026432733326
O        0.8756774296810058        1.0711627461358846       -0.4034081749020239       -0.1946060569702309
N        2.2730898014929326        1.3739810780916264       -0.1847457057306782        0.1283355164991325
N        0.3372371689856721        2.1996531240177806        0.3788305963762177        0.1235072004109040

        RMSE         5.932240828E-01 kcal/mol

Coordinates in bohr
s                   x[bohr]                   y[bohr]                   z[bohr]                      q[e]
+       -3.4437590323683778        2.1774351846919267       -2.4401755382607444        0.0707249461841811
-       -3.1934065002598921        0.5520043866753619        0.0560717842741832       -0.3496602100029151
+       -2.7894523766971231        0.2400989837908193       -0.7779069973237537        0.9824851761690530
+       -5.9132578556581308       -0.4764936192271079        0.1876351592840525        0.1071394941056757
-       -2.8861071223246517       -0.0881291221385501       -0.9183378004380786       -0.8194842575378962
+       -1.1655200361746429       -0.3629514313471941        0.8397562059047874        0.3116552922920345
+       -1.8815972919028174       -2.4730210739437193        2.4479301695373472        0.0918298459672651
+       -2.6907523798139823       -0.7936042914524787        1.0252321391695725        0.5593901217632046
-       -2.0444298554103155       -0.6269098715915112        0.9144505794931992       -0.9963138680841535
+        2.2897902457474197       -1.1106770529134526       -0.1468983542734016        0.9989733053171830
-        2.3740576811527938       -1.2589835304012398       -0.1559925755131124       -0.8354521971080898
+        2.8957198388730787       -2.6011280540759874       -0.5365261393887533        0.2899344186932475
-        2.4859924827319735       -1.9943980252318632       -0.4256063207031922       -0.8678253524624289
+        0.5711599048026993        0.5699040860907970        0.3686248447235473        0.9219570073558310
-        1.0002622833313448        0.4743466687518265        0.5680944193627923       -0.9704818863270434
-        0.8828006237997903        0.7281853496530667       -0.6721327042974267       -0.3320651923316272
+        1.4755071824505814       -0.4397660208434533       -0.0420995070714960        0.9769593393400061
-        2.0443207270221624        1.8360595143860055        1.0853517106327417       -0.1970026432733326
-        1.6547905163419570        2.0242042259901325       -0.7623309673356156       -0.1946060569702309
+        4.2955171833929429        2.5964479391544586       -0.3491187866854066        0.1283355164991325
+        0.6372858887076610        4.1567419754013279        0.7158860750949082        0.1235072004109040
