21
s                      x[A]                      y[A]                      z[A]                      q[e]
N        1.9614991857145538        1.4149345611239130       -0.8076600245670539        0.0707249461841811
O        1.6559822000311668       -0.0667981478555391       -0.3646424558149179       -0.3496602100029151
N        1.5441780762348669        0.3327106701293033       -0.0076123028071987        0.9824851761690530
N        3.1122101529649098       -0.4628903316695372        0.0603263268343822        0.1071394941056757
O        1.6092929545060242        0.2900359863896882        0.1647175173319536       -0.8194842575378962
N        0.6521458415595257       -0.3040589485179686        0.0489501210593777        0.3116552922920345
N        0.8767790011506345       -1.7368194432420552        0.7188358106528562        0.0918298459672651
N        1.4102593304573527       -0.6359739868088466        0.2218212891333635        0.5593901217632046
O        1.0734509740271672       -0.5423363813441472        0.1619410179448530       -0.9963138680841535
N       -1.2724216065940364       -0.4770635515199519       -0.1805079633018872        0.9989733053171830
O       -1.3181062950272602       -0.5641303294109420       -0.2072294466985619       -0.8354521971080898
N       -1.7275211515009745       -1.2297893982681560       -0.2045162759711073        0.2899344186932475
O       -1.4651914203517240       -0.9511752700062283       -0.1446763459864844       -0.8678253524624289
N       -0.2313253579122205        0.2968075172684366        0.0088877128094261        0.9219570073558310
O       -0.4131766121826475        0.2636617984212387       -0.1827575326191749       -0.9704818863270434
O       -0.5864564015714614        0.3391427564512520        0.4652371829717221       -0.3320651923316272
N       -0.8148827028702463       -0.1816995147733265       -0.0301938867912926        0.9769593393400061
O       -0.7560492970286309        1.1361548493542546       -0.4378812357675550       -0.1970026432733326
O       -0.9432575204823588        1.0172358622903297        0.5421534957514930       -0.1946060569702309
N       -2.1108044223336413        1.5790613680738146       -0.0926903508786167        0.1283355164991325
N       -0.0524120636642912        2.1797513456975701        0.3036220530622719        0.1235072004109040

        RMSE         1.529919214E+00 kcal/mol

Coordinates in bohr
s                   x[bohr]                   y[bohr]                   z[bohr]                      q[e]
+        3.7066962563090486        2.6738388059690648       -1.5262562489122731        0.0707249461841811
-        3.1293528266920272       -0.1262302051348070       -0.6890743752045521       -0.3496602100029151
+        2.9180736530202380        0.6287320455619259       -0.0143851674896593        0.9824851761690530
+        5.8812248339728939       -0.8747359529777635        0.1140002358718397        0.1071394941056757
-        3.0411229396452502        0.5480885808035248        0.3112709958227454       -0.8194842575378962
+        1.2323770344037173       -0.5745881386936420        0.0925023226102295        0.3116552922920345
+        1.6568721847271730       -3.2821130770976312        1.3584028113053590        0.0918298459672651
+        2.6650039004359241       -1.2018166579842497        0.4191814852580517        0.5593901217632046
-        2.0285283500172904       -1.0248672286122944        0.3060241723936237       -0.9963138680841535
+       -2.4045283525777732       -0.9015194568109497       -0.3411106141047591        0.9989733053171830
-       -2.4908599018434372       -1.0660518216509878       -0.3916068993904429       -0.8354521971080898
+       -3.2645418522723824       -2.3239651547183966       -0.3864797497839445        0.2899344186932475
-       -2.7688105058353156       -1.7974607576201733       -0.2733986707464354       -0.8678253524624289
+       -0.4371415723276058        0.5608849196144402        0.0167953430915387        0.9219570073558310
-       -0.7807906384697062        0.4982485887618103       -0.3453616840146660       -0.9704818863270434
-       -1.1082419834915780        0.6408869271257124        0.8791708591960671       -0.3320651923316272
+       -1.5399051327975932       -0.3433623200501657       -0.0570581766986217        0.9769593393400061
-       -1.4287261087290293        2.1470215013903378       -0.8274756110777075       -0.1970026432733326
-       -1.7824983794900859        1.9222971847226575        1.0245216249298859       -0.1946060569702309
+       -3.9888422626158011        2.9839935209502673       -0.1751593776331749        0.1283355164991325
+       -0.0990444459955700        4.1191330649665563        0.5737625259369182        0.1235072004109040
