21
s                      x[A]                      y[A]                      z[A]                      q[e]
N 1.8210932803260773 1.0808543646160447 -1.3632178381587354 0.0707249461841811
O 1.6276025302738855 -0.1072023700262739 -0.3641540269604376 -0.3496602100029151
N 1.5197639135770253 0.3739200784633715 -0.1800825431453976 0.9824851761690530
N 3.1318824837611863 -0.2668682714334368 0.0786485531229230 0.1071394941056757
O 1.5945486376309084 0.4214480229288826 -0.0064046568407297 -0.8194842575378962
N 0.6803530832468176 -0.1662402728196323 0.2061742089129347 0.3116552922920345
N 0.9971272514873608 -1.2748915483834242 1.3192438462854510 0.0918298459672651
N 1.4474931113386078 -0.3995334889515639 0.4728405751364549 0.5593901217632046
O 1.1109737739455403 -0.3292889372335133 0.3637470063539297 -0.9963138680841535
N -1.1707103903244906 -0.5827890801599250 -0.2393690834928950 0.9989733053171830
O -1.2056135794102441 -0.6607237851423964 -0.2752391500150723 -0.8354521971080898
N -1.5232911714431876 -1.3837910745607558 -0.2990560970666971 0.2899344186932475
O -1.3100307188984763 -1.0623989796838673 -0.2210874307480085 -0.8678253524624289
N -0.2650435291636709 0.3178034342761636 0.0501249387450077 0.9219570073558310
O -0.4183599820280574 0.2765827619491986 -0.1672811776629667 -0.9704818863270434
O -0.6749182050275491 0.3341025722740018 0.4547288393977980 -0.3320651923316272
N -0.7741543934206192 -0.2301796008765809 -0.0445537379890851 0.9769593393400061
O -0.8565564077179504 1.0995144883122352 -0.4206827915834442 -0.1970026432733326
O -1.1105271705184154 0.9421154869462103 0.5390467382680328 -0.1946060569702309
N -2.2806308575486174 1.3623190376278569 -0.1889547227369443 0.1283355164991325
N -0.3508936475513746 2.2017705518752710 0.3872612828283767 0.1235072004109040
