21
s                      x[A]                      y[A]                      z[A]                      q[e]
N       -1.8900054541558844        1.5141048353069357        0.0909814745064327        0.0707249461841811
O       -1.6247993599501687       -0.0386785439517204        0.3215452423377559       -0.3496602100029151
N       -1.4878762586529650        0.2081134330614857       -0.1512872153559997        0.9824851761690530
N       -3.0749977156626995       -0.5404824103597275        0.0731139465283727        0.1071394941056757
O       -1.5557202498798595        0.0973910802367517       -0.2991192215460292       -0.8194842575378962
N       -0.5251739599521935       -0.6481144535204704       -0.1426287763656957        0.3116552922920345
N       -0.8521503038245382       -1.9983294523556150       -0.0521092683082894        0.0918298459672651
N       -1.3022717149928238       -0.9611770358240876       -0.0392542476818381        0.5593901217632046
O       -0.9997178133804925       -0.7941422281285554       -0.0652634146361173       -0.9963138680841535
N        0.7658953838097986        0.8199040411740653       -0.1088052980122398        0.9989733053171830
O        0.7381516809970113        0.9080112975651440       -0.1224564483396535       -0.8354521971080898
N        0.6046782455804554        1.6773395434864626       -0.0032192613524426        0.2899344186932475
O        0.5899754222425766        1.2833021180020936       -0.0026629407291469       -0.8678253524624289
N        0.5011758154383349       -0.4582956617974527       -0.1219209456344020        0.9219570073558310
O        0.6163731793172825       -0.2960539179311252       -0.2871668601650750       -0.9704818863270434
O        0.7744003033594743       -0.3323482006715417        0.3684631207137026       -0.3320651923316272
N        0.6175113263310579        0.2843103784079982       -0.0442812125137566        0.9769593393400061
O        1.5219067431942839       -0.4927510842333881       -0.5945609002474707       -0.1970026432733326
O        1.4965365290081034       -0.6344893227759030        0.4115191084441835       -0.1946060569702309
N        2.7743038450783790       -0.0371456066669472        0.0191694242548183        0.1283355164991325
N        1.6993950094980268       -1.9102595885203795       -0.2893432054767109        0.1235072004109040

        RMSE         9.225128911E+00 kcal/mol

Coordinates in bohr
s                   x[bohr]                   y[bohr]                   z[bohr]                      q[e]
+       -3.5715926839761623        2.8612434639615385        0.1719300693074812        0.0707249461841811
-       -3.0704257991249913       -0.0730918550002348        0.6076324449623259       -0.3496602100029151
+       -2.8116786374249569        0.3932773915150085       -0.2858914033059974        0.9824851761690530
+       -5.8109035190109459       -1.0213637312071959        0.1381653348899925        0.1071394941056757
-       -2.9398852001017510        0.1840424687099493       -0.5652534075821394       -0.8194842575378962
+       -0.9924349525318032       -1.2247588151044562       -0.2695293249403371        0.3116552922920345
+       -1.6103306919540556       -3.7762953733882401       -0.0984722457006662        0.0918298459672651
+       -2.4609368822667101       -1.8163613557868932       -0.0741797773795618        0.5593901217632046
-       -1.8891928700306901       -1.5007113158238217       -0.1233299796744577       -0.9963138680841535
+        1.4473325161529269        1.5493940869750822       -0.2056122142419542        0.9989733053171830
-        1.3949045161306650        1.7158926712197147       -0.2314091496582201       -0.8354521971080898
+        1.1426762781693911        3.1697123565898755       -0.0060835222823874        0.2899344186932475
-        1.1148919687898105        2.4250895392439209       -0.0050322286664146       -0.8678253524624289
+        0.9470850318814521       -0.8660532852826316       -0.2303971962058531        0.9219570073558310
-        1.1647764999873715       -0.5594608232585950       -0.5426667180196372       -0.9704818863270434
-        1.4634044848208660       -0.6280470775579133        0.6962943854804053       -0.3320651923316272
+        1.1669272861339146        0.5372687498163954       -0.0836793641541961        0.9769593393400061
-        2.8759869331246759       -0.9311645972235045       -1.1235572663733711       -0.1970026432733326
-        2.8280441765685898       -1.1990110495736686        0.7776584103520868       -0.1946060569702309
+        5.2426744560027201       -0.0701950233645107        0.0362249618243150        0.1283355164991325
+        3.2113911469210752       -3.6098674508332818       -0.5467794146130532        0.1235072004109040
