25
s                      x[A]                      y[A]                      z[A]                      q[e]
N       -1.8721347361831711        1.2435003719939879        0.5612171196636078        0.1158659338886357
O       -1.7192485036922107       -0.4392928643052875        0.4677063560471175       -0.2341991647481463
N       -3.2887878982245584       -0.6346701027382009        0.1139561851345322        0.0569852111266852
N       -2.0987296228561294       -0.5056416167622975        0.0025631253111804        0.3189271149812888
O       -1.8841857676255045       -0.2561656669126707       -0.2755788926452312       -0.2877498234141676
N       -1.2981446843406075       -0.9133959716783888       -0.3413577812589215        0.5692545008206258
O       -0.8855260731011058       -0.4886302615333359        0.3048919882194511       -0.2058946535748549
O       -1.0835252239655113       -0.7008372671594352       -0.3772018916730414       -0.9992971180892700
N       -0.6682773848371804       -0.3923198320503215       -0.1577212890163898        0.6691943173322236
N       -0.8380734083125755       -2.0577097888568305       -0.6260461838286602        0.0628076875181509
N        0.5893880380600682        1.6258422176830627       -0.0911209319240591        0.7576134719858190
O        0.5572149831392555        1.2731886796963108       -0.0098937944133362       -0.9235083265987739
N        0.6331480805503088        0.8538814860795119       -0.0644419600031778        0.9955526175656415
O        0.6023900111563681        1.4252330592754405       -0.1351171590632804       -0.9936641819349231
O        0.4883843434584122       -0.2065985739434491       -0.1925099496205309       -0.9934394819660318
N        0.4926332738499237        0.2159952313935856       -0.0271348970297372        0.8475065253219278
N        0.4438021627728990       -0.4856210123943980       -0.0968225131106837        0.9207393412409772
O        0.6530924501936711       -0.3059394891339671        0.1974408929949882       -0.6738758902636315
N        2.8171049715001999       -0.0969740654887704        0.3221717310528320        0.1207489421105395
N        1.1183234101353920       -0.7272298711229783        0.1320032211101922        0.4308753055723465
O        1.4284914604570456       -0.4762990256224342       -0.1194636131959375       -0.7095764258838037
N        1.5440349986953419       -0.2675218933893008        0.0980158208849916        0.9977500474782615
O        1.4760521451266893       -0.4565456255103827        0.2297082527997567       -0.9963537733476465
O        1.8065615174559111       -1.9386687518743746       -0.1707000288057433       -0.1586318904925156
N        1.7757377502522891       -1.8878306900365469       -0.0061057463258943        0.3123697133706422

        RMSE         4.374456454E-01 kcal/mol

Coordinates in bohr
s                   x[bohr]                   y[bohr]                   z[bohr]                      q[e]
+       -3.5378219213424371        2.3498751399735669        1.0605466530825118        0.1158659338886357
-       -3.2489088135814499       -0.8301432024049025        0.8838369200649189       -0.2341991647481463
+       -6.2149084123644887       -1.1993526741913820        0.2153459802062345        0.0569852111266852
+       -3.9660241985834825       -0.9555241733144484        0.0048436048633598        0.3189271149812888
-       -3.5605950702977283       -0.4840829532102017       -0.5207686330564316       -0.2877498234141676
+       -2.4531379246226517       -1.7260682305685899       -0.6450727173733026        0.5692545008206258
-       -1.6734017551132381       -0.9233773709088361        0.5761623555810772       -0.2058946535748549
-       -2.0475659233201711       -1.3243904934456523       -0.7128082692666600       -0.9992971180892700
+       -1.2628612331794549       -0.7413770361607199       -0.2980500403951566        0.6691943173322236
+       -1.5837292147397597       -3.8885079466130641       -1.1830558293241933        0.0628076875181509
+        1.1137819735544436        3.0723965146279770       -0.1721936056329587        0.7576134719858190
-        1.0529837111347944        2.4059779106592774       -0.0186965617827901       -0.9235083265987739
+        1.1964764690993959        1.6136021522892083       -0.1217776553937135        0.9955526175656415
-        1.1383521417970215        2.6933001469789852       -0.2553344254795220       -0.9936641819349231
-        0.9229126530979305       -0.3904147226632667       -0.3637910812084875       -0.9934394819660318
+        0.9309419678640216        0.4081718317387675       -0.0512775238287024        0.8475065253219278
+        0.8386645415266348       -0.9176907141929737       -0.1829680325577421        0.9207393412409772
-        1.2341658654702456       -0.5781418454256790        0.3731092137263527       -0.6738758902636315
+        5.3235568628010581       -0.1832544250459878        0.6088163370545097        0.1207489421105395
+        2.1133249648439403       -1.3742652866744216        0.2494499355765165        0.4308753055723465
-        2.6994576328190871       -0.9000747122488214       -0.2257535108979516       -0.7095764258838037
+        2.9178032756558312       -0.5055431110697056        0.1852230574345636        0.9977500474782615
-        2.7893343011839744       -0.8627461959904561        0.4340856865489716       -0.9963537733476465
-        3.4139064967831736       -3.6635529890257255       -0.3225763040506169       -0.1586318904925156
+        3.3556580186134588       -3.5674829754031419       -0.0115381883474606        0.3123697133706422
