10
s                      x[A]                      y[A]                      z[A]                      q[e]
C -1.4182237151858517 -0.4396842856401926 -0.7918394527863232
C -0.4626712972683887 0.1365865548912439 -0.0734243376197446
C 0.9949382492140824 0.1771950363476222 -0.2880266919332389
C 1.8112710088391568 -0.8310602931089067 0.0339178040282818
H -2.4623458432024115 -0.3357662634324742 -0.5246141444516064
H -1.1579079898687781 -1.0364584741058249 -1.6565871479211700
F -0.8487975309413677 0.9460403892760382 1.0251750051151747
H 1.3941479983286824 1.1185273748702427 -0.6599490557310492
H 1.4297265130598336 -1.7615424895650600 0.4438139220241649
H 2.8836717879852105 -0.7573445266504021 -0.1130058872034016
