25
s                      x[A]                      y[A]                      z[A]                      q[e]
N 1.2873232721461194 -1.9475817920012610 0.5400200690831858 0.1158659338886357
O 1.7747046359767911 -0.3534845104171032 0.3165482773244730 -0.2341991647481463
N 3.2834134594689570 -0.8061418276807072 -0.1226622988153495 0.0569852111266852
N 2.1347013778256994 -0.4488955090793671 -0.1387752018861595 0.3189271149812888
O 1.8077166046879916 -0.6094974101277043 -0.4322124128038787 -0.2877498234141676
N 1.5549289727798890 0.1006260227336668 -0.3194173438625911 0.5692545008206258
O 0.9052631067400592 0.6520434088219648 -0.4587652170657921 -0.2058946535748549
O 1.2816577518675050 0.0821941647033685 -0.1742430059184761 -0.9992971180892700
N 0.7754514447668220 0.3099762703959948 -0.1192187606642685 0.6691943173322236
N 1.5184323191650333 1.4564334012358939 -0.8040787954796685 0.0628076875181509
N -0.9790612649260894 1.0884203908220307 1.2406579771126593 0.7576134719858190
O -0.8729575850488525 0.9637251298923455 0.9294774340847853 -0.9235083265987739
N -0.8143172736003236 0.6492614275514490 0.6301740702012800 0.9955526175656415
O -0.9311842079896956 0.9444662375088606 1.1181051605085890 -0.9936641819349231
O -0.3749209184693307 -0.0151596785897750 -0.0935399545688292 -0.9934394819660318
N -0.5175847120689095 0.3526486665283341 0.1272209562039228 0.8475065253219278
N -0.2740029958391547 -0.0809399013212545 -0.3573220950020217 0.9207393412409772
O -0.5795424367900412 0.1619442625360827 -0.4260164417402096 -0.6738758902636315
N -2.6917158642746024 -0.3354016817403512 -0.5351552964394443 0.1207489421105395
N -0.8854248022801940 -0.2693472252857307 -0.7494995754738479 0.4308753055723465
O -1.1897263872540584 -0.4207446874975796 -0.4313998256031499 -0.7095764258838037
N -1.3979901328724211 -0.1771762108661134 -0.4132844503520894 0.9977500474782615
O -1.3110900060771562 -0.1670151069896342 -0.6350104618961244 -0.9963537733476465
O -1.1237826028990063 -1.4208274331515982 -1.5608344662474074 -0.1586318904925156
N -1.1614125095160295 -1.2523138681345809 -1.6148809486255924 0.3123697133706422
