11
s                      x[A]                      y[A]                      z[A]                      q[e]
C 0.1401674167265169 -1.4150901745709130 0.5885909918283821
C 0.6072028291409288 -0.1260908049535839 -0.0376890727350708
H -0.4510380065489763 -1.2346438161524307 1.4928314137305656
H 1.0130331248051716 -2.0095177878542607 0.8560514786229024
H -0.4829127570920457 -1.9740681200725669 -0.1165955893828277
O -0.3619795209159999 0.6703135788586713 -0.6128100940139578
O 1.7823990826490681 0.1912112287549615 -0.1587511986114516
C -1.6625862967645533 0.8226294618931522 0.0245831126825341
H -2.2146766654272971 -0.1220218235750021 0.0390065781426415
H -2.1913698135068302 1.5467070222431727 -0.5908854324997963
H -1.5450997250160323 1.2126524560187828 1.0391716719570037
