25
s                      x[A]                      y[A]                      z[A]                      q[e]
N -2.4200791613269201 0.1268428276946076 -0.2245214722275894 0.1158659338886357
O -1.0728765686933097 1.1792484352622419 -0.4137663238463380 -0.2341991647481463
N -1.9432384685251129 2.4623365777936614 0.0051766006244197 0.0569852111266852
N -1.2179219919159148 1.5051580354597121 0.0735847401263059 0.3189271149812888
O -1.2109366354901465 1.1807634676966487 0.3570449079186752 -0.2877498234141676
N -0.3682048159807455 1.2066435489845970 0.2673357947025458 0.5692545008206258
O -0.2791147080886401 0.6165351208489781 -0.4045699226894274 -0.2058946535748549
O -0.3917822688375623 0.9041361415766250 0.2888040985466883 -0.9992971180892700
N -0.3028672930289562 0.3941679450688004 0.0649749521614056 0.6691943173322236
N 0.8481300006043406 1.6566345329772474 0.4101851000696967 0.0628076875181509
N -0.9610911942589235 -1.8878531579234898 -0.1169560093414615 0.7576134719858190
O -0.7069835064808321 -1.6302922384168874 -0.1499579326290754 -0.9235083265987739
N -0.3611797090542910 -1.4080360695887157 -0.0251308947980998 0.9955526175656415
O -0.8144020699944486 -1.7639215234864221 -0.0429830105366592 -0.9936641819349231
O 0.2772555809489138 -0.6255164604420671 0.2293044317290943 -0.9934394819660318
N -0.0082240146689758 -0.8984190964303831 0.0057467490282078 0.8475065253219278
N 0.4807039637390867 -0.4153991279796963 0.1705112379174249 0.9207393412409772
O 0.5323633905559086 -0.6945821512319954 -0.1159620933569440 -0.6738758902636315
N 2.8967439917358679 0.1248892362864403 -0.1905993134036633 0.1207489421105395
N 1.1256650940238364 -0.7948155864537770 0.1435455996271333 0.4308753055723465
O 1.4704837637034172 -0.3637604066716701 -0.1460179437322026 -0.7095764258838037
N 1.6186967143910818 -0.0939598389872898 -0.0486727879928493 0.9977500474782615
O 1.5937559726635762 -0.2222109223422545 0.1528815603311295 -0.9963537733476465
O 1.9178338224298370 -1.7560504051849410 0.2328055180960845 -0.1586318904925156
N 1.9215616617135316 -1.6493268383989894 0.3714492142667579 0.3123697133706422
