25
s                      x[A]                      y[A]                      z[A]                      q[e]
N 0.0610027986039475 -0.0031082892973356 0.2444642876084784 0.1158659338886357
O -0.1679128646451674 0.4328680095469171 0.3130653975763708 -0.2341991647481463
N -0.0866717205848880 -0.0106429770252816 -0.3925809372745337 0.0569852111266852
N -0.5107554518764306 -0.0206494635175435 0.1327856033493477 0.3189271149812888
O -0.2398022121271769 -0.3495952100977310 0.2813839041552607 -0.2877498234141676
N 0.0280329359804833 0.1051866928529371 -0.5550778595356237 0.5692545008206258
O -0.1599152188069519 -0.4900161499446973 0.0489214631410107 -0.2058946535748549
O -0.0658328888287731 0.1738906659306402 -0.2665867117799163 -0.9992971180892700
N -0.1884499079635634 -0.0222183353000415 0.2394609806729851 0.6691943173322236
N 0.0180765259401464 -0.0129173264419236 0.3826947783312623 0.0628076875181509
N 0.0553738555808603 0.0081265081067139 0.2875290715652073 0.7576134719858190
O 0.0338573062341200 -0.0774810132388934 -0.0583410799349417 -0.9235083265987739
N 0.1022550735619063 -0.0065073181771153 -0.4804612618681328 0.9955526175656415
O 0.0666286482992654 0.0473995840209479 0.0931865759840447 -0.9936641819349231
O -0.0413643761763933 0.1161459407575502 -0.1241849377282895 -0.9934394819660318
N -0.0309984879311206 -0.0510413998025965 0.2953166397338878 0.8475065253219278
N -0.0826601847568043 0.0163312171335113 -0.3990289754457130 0.9207393412409772
O 0.1580475730457978 -0.2513054866810832 -0.2247874393402712 -0.6738758902636315
N -0.0650301951368261 0.0220064795911969 0.2187057262785545 0.1207489421105395
N 0.2661586224304616 0.0780867666833775 -0.4899783835528754 0.4308753055723465
O 0.3481000895829706 -0.2109242743868944 -0.1275186824980886 -0.7095764258838037
N 0.4507699268009409 -0.0077090968213912 0.0992622293591822 0.9977500474782615
O 0.3051123134062225 0.1230729036071817 -0.0362746698198977 -0.9963537733476465
O -0.0304784799619676 -0.3721697491181418 -0.1423392978975205 -0.1586318904925156
N -0.0325239609598199 -0.1972364173321864 -0.0877809169942648 0.3123697133706422
