21
s                      x[A]                      y[A]                      z[A]                      q[e]
N       -1.8557431087277536        1.5350386050641012        0.1611454507352732        0.0707249461841811
O       -1.6391060748305912       -0.0154450000325223        0.3042168885336375       -0.3496602100029151
N       -1.4703770615106639        0.2100294122221509       -0.1245944207893095        0.9824851761690530
N       -3.0838600788528421       -0.4871744918891394        0.0050976573076862        0.1071394941056757
O       -1.5589571628828882        0.1334136108277628       -0.2991944372658002       -0.8194842575378962
N       -0.5450930134487155       -0.6505307420535476       -0.1219192839771983        0.3116552922920345
N       -0.8950484378082790       -1.9918582078338689       -0.0874324723695853        0.0918298459672651
N       -1.3137323321571266       -0.9455145708540444       -0.0732991323506589        0.5593901217632046
O       -1.0247403498924257       -0.7836174203313191       -0.0768600284213155       -0.9963138680841535
N        0.7959616549396050        0.7895597563950361       -0.1405817760078283        0.9989733053171830
O        0.7287480233747948        0.8620411718094465       -0.1243985079063265       -0.8354521971080898
N        0.6448506321483837        1.6452515594822144       -0.0315702342524568        0.2899344186932475
O        0.5815935346988463        1.2429967971451008       -0.0061958603512485       -0.8678253524624289
N        0.4885064752587312       -0.4743793209298772       -0.1296438223853315        0.9219570073558310
O        0.5793696234742728       -0.3441600435101325       -0.2877138129129128       -0.9704818863270434
O        0.7609609322561565       -0.3715604350284807        0.3547241997475426       -0.3320651923316272
N        0.6323275292291184        0.2591306788292060       -0.0651844401857463        0.9769593393400061
O        1.4725817602200117       -0.4102639230483020       -0.6140927267553133       -0.1970026432733326
O        1.4782247045487926       -0.6923659311757793        0.3794791733809293       -0.1946060569702309
N        2.7683960682160520       -0.1080750480007009        0.0296095049111864        0.1283355164991325
N        1.5386282161358771       -2.0644154026696491       -0.1283246940284979        0.1235072004109040

        RMSE         5.589972118E+00 kcal/mol

Coordinates in bohr
s                   x[bohr]                   y[bohr]                   z[bohr]                      q[e]
+       -3.5068462347011629        2.9008025555759733        0.3045207682531232        0.0707249461841811
-       -3.0974615720040020       -0.0291868200691544        0.5748866020675069       -0.3496602100029151
+       -2.7786099474106138        0.3968980673907502       -0.2354493320518441        0.9824851761690530
+       -5.8276509582646536       -0.9206263649795494        0.0096331761929655        0.1071394941056757
-       -2.9460020791694088        0.2521151858728868       -0.5653955446928358       -0.8194842575378962
+       -1.0300765083185730       -1.2293249386720562       -0.2303940561288235        0.3116552922920345
+       -1.6913964164765209       -3.7640664935512707       -0.1652234272501751        0.0918298459672651
+       -2.4825943099359633       -1.7867635865439346       -0.1385152853764312        0.5593901217632046
-       -1.9364786110025127       -1.4808223115639620       -0.1452444037111910       -0.9963138680841535
+        1.5041495342020206        1.4920516992698181       -0.2656610548852537        0.9989733053171830
-        1.3771341786471019        1.6290217235885913       -0.2350791103585574       -0.8354521971080898
+        1.2185910865887963        3.1090748549037746       -0.0596590964536912        0.2899344186932475
-        1.0990524969177737        2.3489235214255015       -0.0117084791754426       -0.8678253524624289
+        0.9231434487517425       -0.8964469961381325       -0.2449913181657754        0.9219570073558310
-        1.0948499137759984       -0.6503682255598002       -0.5437003089166170       -0.9704818863270434
-        1.4380077541372034       -0.7021474612597959        0.6703315875950524       -0.3320651923316272
+        1.1949258518304635        0.4896860136911724       -0.1231807395923480        0.9769593393400061
-        2.7827762241604312       -0.7752864537171963       -1.1604670692031511       -0.1970026432733326
-        2.7934398434830325       -1.3083819885198067        0.7171117080050829       -0.1946060569702309
+        5.2315103757226051       -0.2042322417170333        0.0559538549925409        0.1283355164991325
+        2.9075859373985407       -3.9011797202223781       -0.2424985268470345        0.1235072004109040
