21
s                      x[A]                      y[A]                      z[A]                      q[e]
N -1.8598383740304181 1.5377068345585316 0.1630199805165914 0.0707249461841811
O -1.6295311452846637 -0.0198501849569406 0.2998698863551192 -0.3496602100029151
N -1.4955738736836395 0.2197993915777427 -0.1079679429000376 0.9824851761690530
N -3.0863318979729928 -0.4861032788308397 0.0083137430917760 0.1071394941056757
O -1.5403766166459603 0.1267980295725222 -0.3155688393164486 -0.8194842575378962
N -0.5501839853310666 -0.6538618427080271 -0.1203017548704660 0.3116552922920345
N -0.8949055839525554 -1.9930455894371302 -0.0878171364043517 0.0918298459672651
N -1.3222758172837825 -0.9474218983365271 -0.0689279014374514 0.5593901217632046
O -1.0102640757686550 -0.7790989675662916 -0.0828761675042748 -0.9963138680841535
N 0.7719454940294304 0.7764865725290848 -0.1255391627002231 0.9989733053171830
O 0.7511176080592479 0.8754236812253293 -0.1381897160433629 -0.8354521971080898
N 0.6315764694167189 1.6422904344142180 -0.0245873154346316 0.2899344186932475
O 0.6114387420384347 1.2549984384594293 -0.0214308197753284 -0.8678253524624289
N 0.4747757150689932 -0.4929860526523558 -0.1278537240258660 0.9219570073558310
O 0.5947056442086873 -0.3241606436992435 -0.2942976583398877 -0.9704818863270434
O 0.7669207290076563 -0.3663657876835971 0.3557719457828044 -0.3320651923316272
N 0.6118901899660718 0.2459739897262037 -0.0558213015661932 0.9769593393400061
O 1.4756064994032889 -0.4036264205840891 -0.6159394564551174 -0.1970026432733326
O 1.4814394546249088 -0.6880022630965047 0.3816177893138801 -0.1946060569702309
N 2.7668544671563904 -0.1100285651065713 0.0302317248661812 0.1283355164991325
N 1.5393491126804493 -2.0783747077492776 -0.1342750350616872 0.1235072004109040
