21
s                      x[A]                      y[A]                      z[A]                      q[e]
N -1.9128350082788204 1.3692386653790085 0.5984015123321510 0.0707249461841811
O -1.5754614974641705 -0.1567000895844202 0.3694737574885089 -0.3496602100029151
N -1.5096803405042711 0.1927223467515130 -0.0466449614803666 0.9824851761690530
N -3.0385385061032726 -0.6615860698729379 0.1183468366992176 0.1071394941056757
O -1.5854729335046804 0.1240384258746496 -0.2056941512707938 -0.8194842575378962
N -0.4923714539602425 -0.6241331070717359 -0.2873295855075284 0.3116552922920345
N -0.7985915046437809 -1.9320845632111114 -0.5355912921393930 0.0918298459672651
N -1.2697466110026119 -0.9554717377582516 -0.2610489372683819 0.5593901217632046
O -0.9654789089199034 -0.7732851892472014 -0.2562798695489027 -0.9963138680841535
N 0.7552553297833426 0.8778570116911076 -0.1489388871053396 0.9989733053171830
O 0.7309031734412677 0.9752099354048835 -0.1665778488193778 -0.8354521971080898
N 0.5587589764740022 1.7333172172964457 -0.0867680339961026 0.2899344186932475
O 0.5580552454128820 1.3460976000241998 -0.0776023210022252 -0.8678253524624289
N 0.5290542908329516 -0.4094810933573332 -0.1601181900116865 0.9219570073558310
O 0.6611276853733832 -0.2366929272382299 -0.3137322699548293 -0.9704818863270434
O 0.7468013407744343 -0.2580663528116864 0.3554639742956638 -0.3320651923316272
N 0.6155993228790162 0.3377476086716440 -0.0880435739012711 0.9769593393400061
O 1.5724032273550328 -0.5824620514487970 -0.3988032955578170 -0.1970026432733326
O 1.4101612265331160 -0.5269027583234828 0.5912711549323162 -0.1946060569702309
N 2.7396062513525812 -0.0437393629144408 0.3068890067940249 0.1283355164991325
N 1.6511120982612386 -1.9282026772499201 0.1651852801925523 0.1235072004109040
