21
s                      x[A]                      y[A]                      z[A]                      q[e]
N 0.0230809545666537 0.5066868650255508 0.2822651037318157 0.0707249461841811
O 0.1145551428187342 0.1965851015818829 0.2629432081122942 -0.3496602100029151
N 0.3188026352221199 -0.2964350785995333 0.3845657869495849 0.9824851761690530
N 0.0930701768607913 0.0824902894499640 -0.2073238086047955 0.1071394941056757
O 0.1810005318837447 -0.4178929076844259 0.4294792479968144 -0.8194842575378962
N 0.1378015700015995 -0.0335503968741366 0.3004911754937507 0.3116552922920345
N 0.0186216360125923 0.5119922935786477 0.1968505294610254 0.0918298459672651
N 0.1612321696133661 -0.1785430238535428 -0.5321049093920583 0.5593901217632046
O 0.1042629587826414 -0.1368705902671301 -0.1845255166020304 -0.9963138680841535
N 0.1950520066503994 0.0169452614177949 -0.4171648859641260 0.9989733053171830
O 0.1651351567985948 0.0302539239145201 -0.3206785457808063 -0.8354521971080898
N -0.0169400143283828 -0.0779506202138520 0.4315649591015527 0.2899344186932475
O -0.0037255785549715 -0.0857299184552970 0.0445398969432757 -0.8678253524624289
N 0.0114280917248324 -0.0024254481063051 -0.3465968809192665 0.9219570073558310
O 0.1124829606319115 0.1691617068988731 -0.1698423076816396 -0.9704818863270434
O 0.3013746969662304 -0.4786270986350654 -0.1874487621517205 -0.3320651923316272
N 0.0839400024143903 -0.0629070861409181 0.4031494230156231 0.9769593393400061
O 0.2730771303056136 -0.6191982899086358 -0.1334143621627082 -0.1970026432733326
O 0.2065420413195049 0.3716331658979772 0.0198267142965129 -0.1946060569702309
N 0.0945448309395439 -0.3067966443631548 0.2066292088695672 0.1283355164991325
N -0.0150121517398027 -0.1662026782271648 -0.1089662043608869 0.1235072004109040
