25
s                      x[A]                      y[A]                      z[A]                      q[e]
N 1.8257702050060638 1.1833771770553811 0.7699686359446842 0.1158659338886357
O 1.8489796563127390 -0.1027634385410294 -0.3332256445729509 -0.2341991647481463
N 3.2972107270450328 -0.5871210393908006 0.1117603727299740 0.0569852111266852
N 2.0938391881878822 -0.5087545532093418 0.0516622049058345 0.3189271149812888
O 1.7929518175869954 -0.4592795350977734 0.3645466926706381 -0.2877498234141676
N 1.3561055034527820 -0.8439295677531005 -0.1909477502016159 0.5692545008206258
O 0.7885454547576090 -0.4668505499360922 -0.7484126398478006 -0.2058946535748549
O 1.1247870936652820 -0.6567591611806937 -0.1218631318191331 -0.9992971180892700
N 0.6818289583871322 -0.3534625821280534 -0.2522081239089905 0.6691943173322236
N 0.8951160633621880 -1.9700767870910059 -0.8327058244379254 0.0628076875181509
N -0.6365844734399621 1.6150459968483493 -0.1052647082628755 0.7576134719858190
O -0.6151014174466818 1.2675799342828018 -0.1806290099188670 -0.9235083265987739
N -0.6579040318116010 0.8437815584093535 -0.1029221308786639 0.9955526175656415
O -0.6378385023229581 1.4216300762564207 -0.0533611193634549 -0.9936641819349231
O -0.4621772713106837 -0.2087417420865698 0.0190165309420547 -0.9934394819660318
N -0.5072984824136588 0.2113365641844229 -0.1525661298671555 0.8475065253219278
N -0.4226497773565805 -0.4805777642559168 -0.0770610957165936 0.9207393412409772
O -0.6995355862492381 -0.3245180887279772 -0.3225114802806572 -0.6738758902636315
N -2.8026688413241869 -0.1677587505008679 0.3625768048028337 0.1207489421105395
N -1.1155864241876177 -0.7496813837951267 -0.0000379158153946 0.4308753055723465
O -1.3306843626156750 -0.4881439140107694 0.3242510263765118 -0.7095764258838037
N -1.5219251712581789 -0.2978545316236392 0.1428838103313775 0.9977500474782615
O -1.4947867136357680 -0.4996780498072091 0.0146123138119637 -0.9963537733476465
O -1.6007261069719361 -1.9458381210492934 0.6154684414305632 -0.1586318904925156
N -1.6365213018785147 -1.9015509795158578 0.4472021643897964 0.3123697133706422
