25
s                      x[A]                      y[A]                      z[A]                      q[e]
N       -1.6984099382769287        0.2952364037054751       -1.6372833224912657        0.1158659338886357
O       -1.8496513302867950        0.4957125557354464        0.0532035052790390       -0.2341991647481463
N       -3.3764419331756068        0.0277430213333630        0.0488368927588334        0.0569852111266852
N       -2.1706484123387213       -0.0107551303054495        0.1254368643626173        0.3189271149812888
O       -1.8797636130906328       -0.2809911776514110       -0.0418617004987955       -0.2877498234141676
N       -1.4231592634885648        0.0399363074894867        0.7793993847644740        0.5692545008206258
O       -1.0269809821828302       -0.1258986450468743        0.0152918469492840       -0.2058946535748549
O       -1.1396302142635482       -0.0648660045269954        0.7454101286471266       -0.9992971180892700
N       -0.6945456843754310       -0.1543738432539840        0.4142400535040384        0.6691943173322236
N       -1.1428502737929882       -0.2402851444492607        1.9368974749064924        0.0628076875181509
N        1.1861051156445108       -1.4777213833445972       -0.1655349269238534        0.7576134719858190
O        1.0087675813203119       -1.1613916006084581       -0.1875426223874298       -0.9235083265987739
N        0.9336840136407609       -0.7507101640730481       -0.0862357824398175        0.9955526175656415
O        1.1329759992436799       -1.2916155617328113       -0.0956015736754471       -0.9936641819349231
O        0.4343992519124913        0.1636946778549231        0.2196435996115343       -0.9934394819660318
N        0.5592034829446595       -0.2109815947354474       -0.0039499611463082        0.8475065253219278
N        0.2700280893091528        0.4086030939562910        0.1749315640197442        0.9207393412409772
O        0.4621655575505847        0.3459929545633494       -0.1741271561488529       -0.6738758902636315
N        2.5501262028388307        1.0130176060416387       -0.4229072439858489        0.1207489421105395
N        0.7772869327369406        0.9132304758988719       -0.0118273678985447        0.4308753055723465
O        1.1869831367262065        0.7642663338964583        0.1680747784315395       -0.7095764258838037
N        1.3415339132706217        0.6505906027250257       -0.0915930671566959        0.9977500474782615
O        1.1931929924101112        0.8170956583894201       -0.1808431312709425       -0.9963537733476465
O        1.0059548297733696        2.2322766781073540        0.4712863911012561       -0.1586318904925156
N        0.9750389518339923        2.1991001764505853        0.3022614840308420        0.3123697133706422

        RMSE         1.167967246E+00 kcal/mol

Coordinates in bohr
s                   x[bohr]                   y[bohr]                   z[bohr]                      q[e]
+       -3.2095296320991293        0.5579159452684507       -3.0940170692881392        0.1158659338886357
-       -3.4953344418307828        0.9367609672907429        0.1005400538917335       -0.2341991647481463
+       -6.3805505322132783        0.0524267122127899        0.0922883521325497        0.0569852111266852
+       -4.1019310139800380       -0.0203242507209112        0.2370413196815479        0.3189271149812888
-       -3.5522384093423693       -0.5309963694310332       -0.0791071490886649       -0.2877498234141676
+       -2.6893812409016618        0.0754686836172001        1.4728513795551845        0.5692545008206258
-       -1.9407127923792344       -0.2379139587048202        0.0288974026865646       -0.2058946535748549
-       -2.1535889892549296       -0.1225789834087290        1.4086209942853558       -0.9992971180892700
+       -1.3125011250882388       -0.2917242846843853        0.7828002513176300        0.6691943173322236
+       -2.1596740198732416       -0.4540731150251759        3.6602057606640970        0.0628076875181509
+        2.2414138245726107       -2.7924887042539677       -0.3128156760837582        0.7576134719858190
-        1.9062944529358974       -2.1947120495570869       -0.3544041931623982       -0.9235083265987739
+        1.7644070734992692       -1.4186366096955718       -0.1629620110258205        0.9955526175656415
-        2.1410143452874704       -2.4407996710543820       -0.1806607914093737       -0.9936641819349231
-        0.8208956152183712        0.3093381093408512        0.4150662484755152       -0.9934394819660318
+        1.0567414311675341       -0.3986974315623307       -0.0074643447727220        0.8475065253219278
+        0.5102791349749657        0.7721479415921028        0.3305727466953092        0.9207393412409772
-        0.8733663283901233        0.6538319254627046       -0.3290526361261620       -0.6738758902636315
+        4.8190401087191068        1.9143258356856305       -0.7991788676054268        0.1207489421105395
+        1.4688594237699784        1.7257554888703837       -0.0223504861132812        0.4308753055723465
-        2.2430730439493938        1.4442540579720129        0.3176152998326161       -0.7095764258838037
+        2.5351316840951701        1.2294380589468359       -0.1730858119168216        0.9977500474782615
-        2.2548079704705914        1.5440870126566519       -0.3417439897722996       -0.9963537733476465
-        1.9009791228532187        4.2183915578696816        0.8906022058367793       -0.1586318904925156
+        1.8425565806197122        4.1556970559375905        0.5711914230927363        0.3123697133706422
