25
s                      x[A]                      y[A]                      z[A]                      q[e]
N 0.0958237700039059 -0.0104606808192801 0.2168937203182681 0.1158659338886357
O -0.1627559998799152 0.4083645068700165 0.3125117774372703 -0.2341991647481463
N -0.0850303614887906 -0.0125214216899941 -0.3936500277247013 0.0569852111266852
N -0.4826785998971074 0.0171639990063233 0.1462117650537684 0.3189271149812888
O -0.2400999876047047 -0.3885752058334272 0.2880476612820985 -0.2877498234141676
N -0.0283430064947430 0.0691201273645529 -0.5152440728877330 0.5692545008206258
O -0.1583316409811522 -0.4367724493228596 0.0720765925592284 -0.2058946535748549
O -0.0281272353759223 0.1836866323611334 -0.2202617357859443 -0.9992971180892700
N -0.1813090178413962 -0.0207054630021583 0.2657037962062695 0.6691943173322236
N 0.0277038441627208 0.0158614487628951 0.4460065404615290 0.0628076875181509
N 0.0156418040742561 0.0042436532199744 0.1458668459498755 0.7576134719858190
O -0.0156204945519968 -0.0467285203853928 -0.1499553764674510 -0.9235083265987739
N 0.0495451335614645 0.0029757019536594 -0.5815116380177071 0.9955526175656415
O 0.0148381577947604 0.0465117780258846 -0.0268340266623575 -0.9936641819349231
O -0.0745725658669670 0.0841920756240444 -0.1236859793502387 -0.9934394819660318
N -0.0601509597444516 -0.0272764315111892 0.2561930498920551 0.8475065253219278
N -0.1056925238288248 0.0288978301804182 -0.3700605408186203 0.9207393412409772
O 0.1365396713477259 -0.2113136711673441 -0.2162144463942084 -0.6738758902636315
N -0.0559545719998588 0.0245664069398906 0.2211278152880115 0.1207489421105395
N 0.2919258303994746 0.0581589671847398 -0.4982647836813892 0.4308753055723465
O 0.3749350246284074 -0.1767028415243593 -0.1619806924906010 -0.7095764258838037
N 0.4796759225375869 -0.0060619847741271 0.0317490050772411 0.9977500474782615
O 0.3409879082809905 0.1009533090111883 -0.0925507013745718 -0.9963537733476465
O -0.0171371414842034 -0.3502270307794671 -0.0810467013121208 -0.1586318904925156
N -0.0234120666813576 -0.1827143283001950 -0.0598388554571416 0.3123697133706422
