21
s                      x[A]                      y[A]                      z[A]                      q[e]
N 0.0269959481737928 -0.0457037652552610 0.3778637897367643 0.0707249461841811
O 0.1036464607799789 0.2910274580614565 0.3064844617446061 -0.3496602100029151
N 0.3731745199520327 -0.1806359924370747 0.3265482173395823 0.9824851761690530
N 0.0387154916520197 -0.0115629007829102 -0.1888315675918393 0.1071394941056757
O 0.2582764532962639 -0.3319413805525254 0.3201619558337074 -0.8194842575378962
N 0.1009075320257908 0.1219835503427729 0.2883003812565184 0.3116552922920345
N 0.0304735513584248 -0.0164367688819958 0.2448448840698222 0.0918298459672651
N 0.0902927996759062 0.0354311623207102 -0.5529201975197592 0.5593901217632046
O 0.0476750906796850 0.0635908311122580 -0.1975551286803378 -0.9963138680841535
N 0.2252017601386328 0.0820176181414551 -0.4233145694895465 0.9989733053171830
O 0.2033162480821982 0.0999505170304538 -0.3293065373352794 -0.8354521971080898
N 0.0340464643315272 0.0068486667494355 0.4293652101827775 0.2899344186932475
O 0.0365505892726069 -0.0016344750461632 0.0412813631909987 -0.8678253524624289
N -0.0009826576274107 0.0738039838440287 -0.3513082266481796 0.9219570073558310
O 0.1241899989350444 0.2446769074730573 -0.1779751156909032 -0.9704818863270434
O 0.2600546098257651 -0.4154252854203467 -0.1998013239492327 -0.3320651923316272
N 0.0908528736822996 0.0102314517324666 0.3970904578878658 0.9769593393400061
O 0.1997073263338462 -0.5156102374652068 -0.1025048180612762 -0.1970026432733326
O 0.2305635053727139 0.4887430984422697 -0.0750823753665840 -0.1946060569702309
N 0.0221097623475794 -0.0009800419062513 0.1846273688253511 0.1283355164991325
N 0.0376828425672300 0.0059260932755430 -0.1435937142715595 0.1235072004109040
