25
s                      x[A]                      y[A]                      z[A]                      q[e]
N -1.6928947312093188 0.8873408133453385 -1.2047332274640530 0.1158659338886357
O -1.8444393306330813 0.0865193192723756 0.3116737712407532 -0.2341991647481463
N -3.3541749172355875 -0.3994651033565056 -0.0722630079961648 0.0569852111266852
N -2.0869355788945589 -0.3729868850170380 -0.0115399983983911 0.3189271149812888
O -1.8023125428249396 -0.4807049220161801 -0.3037646739753689 -0.2877498234141676
N -1.3583175777421783 -0.5765994339286860 0.4064561161513783 0.5692545008206258
O -0.7846282995157424 -0.3711052031461769 0.7805679691115290 -0.2058946535748549
O -1.0711006592715306 -0.5001224190795034 0.2908441473269347 -0.9992971180892700
N -0.6306906887984793 -0.2512156627262254 0.3970069253452058 0.6691943173322236
N -1.0449443195879877 -1.6467696416316704 1.4565210516834903 0.0628076875181509
N 0.7078589368762661 1.3099728230647429 0.1105745519792654 0.7576134719858190
O 0.6475398436961078 1.0707047366768740 0.1648204194653386 -0.9235083265987739
N 0.6397692330902843 0.6324527921684561 0.1100420614423036 0.9955526175656415
O 0.6702510171341374 1.1737307772686500 0.0970450851222566 -0.9936641819349231
O 0.3874459619984085 -0.2134200647886126 0.0550849966608956 -0.9934394819660318
N 0.4696166381665558 0.1293018901876052 0.1673514656045773 0.8475065253219278
N 0.3293841825939211 -0.4494313889093441 0.1230157697846613 0.9207393412409772
O 0.6362216531313770 -0.3420377747123847 0.2587348373069310 -0.6738758902636315
N 2.7387928341205043 -0.3681759553902261 -0.4932038255729195 0.1207489421105395
N 0.9703937849228549 -0.7851996382963210 -0.0214609747347368 0.4308753055723465
O 1.1871021610358543 -0.5664812940727024 -0.2774603931902596 -0.7095764258838037
N 1.3203170073916217 -0.3893681073077017 -0.1502822988695984 0.9977500474782615
O 1.3010004748033364 -0.5844634520018006 -0.0517682604192367 -0.9963537733476465
O 1.3573210515405076 -1.9263719109547999 -0.6134056740244398 -0.1586318904925156
N 1.3895791190877720 -1.9577205274513443 -0.4443751405972499 0.3123697133706422
