25
s                      x[A]                      y[A]                      z[A]                      q[e]
N       -1.6900052177937614        0.8895151930067352       -1.2095697259855700        0.1158659338886357
O       -1.8451101777725052        0.0908294317759636        0.3141370677704023       -0.2341991647481463
N       -3.3537248285888888       -0.3992688184123619       -0.0713689231857216        0.0569852111266852
N       -2.0841396877184573       -0.3719716388153923       -0.0104721028572622        0.3189271149812888
O       -1.8038910016353409       -0.4821997019500873       -0.3046881203810551       -0.2877498234141676
N       -1.3542812014813095       -0.5791671397827380        0.4086544686744920        0.5692545008206258
O       -0.7858255119125531       -0.3632276650395864        0.7794277061711038       -0.2058946535748549
O       -1.0709795196870979       -0.4925547472828914        0.2881841151393321       -0.9992971180892700
N       -0.6270401450837306       -0.2554398872161834        0.3938421314137980        0.6691943173322236
N       -1.0450347612196071       -1.6487916956541377        1.4613903281903240        0.0628076875181509
N        0.7029260938696347        1.3053191090805738        0.1102858302042735        0.7576134719858190
O        0.6431086405297467        1.0660936255201525        0.1651985475623377       -0.9235083265987739
N        0.6362154993937073        0.6319290564187524        0.1078724702898695        0.9955526175656415
O        0.6663573880825918        1.1683090247064258        0.0984933023665373       -0.9936641819349231
O        0.3851163036235015       -0.2106987195472525        0.0568774455547918       -0.9934394819660318
N        0.4680469856204553        0.1300377165907010        0.1642705680679004        0.8475065253219278
N        0.3276737658123876       -0.4475989371125670        0.1231969565262144        0.9207393412409772
O        0.6348513599813598       -0.3390143326339005        0.2573478211612154       -0.6738758902636315
N        2.7400620941740019       -0.3668810046403512       -0.4939570567480156        0.1207489421105395
N        0.9675625709619391       -0.7843952795847392       -0.0211850867790928        0.4308753055723465
O        1.1851334726809859       -0.5662833069707092       -0.2763348693937818       -0.7095764258838037
N        1.3166418232533426       -0.3871564186191422       -0.1496191279197630        0.9977500474782615
O        1.2977872724494250       -0.5839468060080500       -0.0522712537220540       -0.9963537733476465
O        1.3571059721590841       -1.9233297550344055       -0.6133935204688929       -0.1586318904925156
N        1.3885927487939898       -1.9567719532940644       -0.4422407718873556        0.3123697133706422

        RMSE         5.041191435E-01 kcal/mol

Coordinates in bohr
s                   x[bohr]                   y[bohr]                   z[bohr]                      q[e]
+       -3.1936470122249179        1.6809400992164900       -2.2857555117577979        0.1158659338886357
-       -3.4867529072848407        0.1716427501875278        0.5936330239404455       -0.2341991647481463
+       -6.3376214261809993       -0.7545087172345180       -0.1348677186898510        0.0569852111266852
+       -3.9384532169850885       -0.7029245237988100       -0.0197894063578499        0.3189271149812888
-       -3.4088599532685935       -0.9112253744630581       -0.5757771012007197       -0.2877498234141676
+       -2.5592205676556472       -1.0944672750541260        0.7722450257392752        0.5692545008206258
-       -1.4849949999124235       -0.6864008081143513        1.4729048992572025       -0.2058946535748549
-       -2.0238579781829853       -0.9307935741587581        0.5445890513207426       -0.9992971180892700
+       -1.1849341438755927       -0.4827114283564229        0.7442537650386493        0.6691943173322236
+       -1.9748294902882750       -3.1157647427155362        2.7616274826726448        0.0628076875181509
+        1.3283378038514704        2.4666956224888970        0.2084100146048217        0.7576134719858190
-        1.2152991995167295        2.0146249763294866        0.3121800112162371       -0.9235083265987739
+        1.2022730506254877        1.1941728473504303        0.2038494253244398        0.9955526175656415
-        1.2592329651515146        2.2077840865958880        0.1861253666646628       -0.9936641819349231
-        0.7277643402970799       -0.3981628749289550        0.1074827948141953       -0.9934394819660318
+        0.8844806166687589        0.2457356703363286        0.3104263841217098        0.8475065253219278
+        0.6192136758828189       -0.8458394051887733        0.2328085073244796        0.9207393412409772
-        1.1996952007392079       -0.6406442412829321        0.4863169009779976       -0.6738758902636315
+        5.1779669247372997       -0.6933046194030864       -0.9334435549909801        0.1207489421105395
+        1.8284282683619202       -1.4822922525170790       -0.0400340119565430        0.4308753055723465
-        2.2395776854798202       -1.0701203595932041       -0.5221972220684064       -0.7095764258838037
+        2.4880924512722697       -0.7316195989032807       -0.2827391748981928        0.9977500474782615
-        2.4524625140343348       -1.1034995351910664       -0.0987783537690002       -0.9963537733476465
-        2.5645586106038651       -3.6345664859589211       -1.1591457608166180       -0.1586318904925156
+        2.6240599950173014       -3.6977630817029388       -0.8357139403781717        0.3123697133706422
