21
s                      x[A]                      y[A]                      z[A]                      q[e]
N       -2.0753961302080270        1.5927173399628796       -0.3747551325541917        0.0690680479201058
O       -1.8654758298914889       -0.1520621832716680        0.4115897579728900       -0.3117950550350966
N       -1.9899088510247893       -0.3031639907651304        0.1044909163435176        0.5776243102962968
N       -3.3238519115518370       -0.5085328677196053        0.1113138689354277        0.0604184539076988
O       -1.8491089633950371       -0.3321170859987280       -0.2319335851096243       -0.3968494342195521
O       -0.9394238734244030       -0.0584348814594329        0.0934046290435532       -0.9828651838991298
N       -0.7559628375633493        0.0847883284923229        0.0986240121437659        0.7759263489545838
N       -1.0814566043830949       -1.2147292009546560        0.0942994707399177        0.9970342621901004
O       -1.1094282882654756       -1.3027672026014840       -0.1982644818351290       -0.3970377457969525
O       -1.1474451396657710       -1.2877692217552557        0.3459869796069965       -0.3893757401670396
N        1.7283412738511907       -1.3307703497355496       -0.0440707480661417        0.1691966627363242
O        1.3930237142543123       -0.9854248364195353       -0.0185259195464457       -0.6800109224217911
O        0.3901543538579190        0.4196655401157497       -0.3514431567290138       -0.9821368279659007
N        0.2659873411019574        0.4862591288417372       -0.2282783975545169        0.8921713087406896
O        0.5981889295873742        0.5020721200688689        0.3093552635186753       -0.3335771210350215
N        0.8004851829651990       -0.1400251131400997       -0.0596637261521935        0.9988617281482304
N        2.3710107897429666        1.5847988057554325       -0.0963889678538884        0.0655379221577991
N        1.1460781919491765        1.0285384205514150       -0.0354341146388472        0.9908754307264420
O        1.0000179351787455        1.0485006534667956       -0.3904917368545456       -0.6595771554465193
O        1.0758879984536429        1.1306002071172783        0.3116886784530105       -0.5578053818499882
N       -0.0319279407038258        2.2790154775427607       -0.1270885188907171        0.0943160920587207

        RMSE         6.598591037E+00 kcal/mol

Coordinates in bohr
s                   x[bohr]                   y[bohr]                   z[bohr]                      q[e]
+       -3.9219302879281850        3.0097995677975509       -0.7081845646370676        0.0690680479201058
-       -3.5252384121560696       -0.2873558804226274        0.7777919186122347       -0.3117950550350966
+       -3.7603827430613137       -0.5728969136469226        0.1974592144873736        0.5776243102962968
+       -6.2811697944124489       -0.9609878457837279        0.2103527262530664        0.0604184539076988
-       -3.4943095169458442       -0.6276103341227205       -0.4382909551527537       -0.3968494342195521
-       -1.7752538364888824       -0.1104259221319217        0.1765091677422995       -0.9828651838991298
+       -1.4285627240186936        0.1602267194858430        0.1863723723455445        0.7759263489545838
+       -2.0436567988516452       -2.2955055064005254        0.1782001734740686        0.9970342621901004
-       -2.0965156206572275       -2.4618732181456360       -0.3746655710742022       -0.3970377457969525
-       -2.1683570579560141       -2.4335311419114021        0.6538206344315861       -0.3893757401670396
+        3.2660916589036577       -2.5147914968799192       -0.0832816439890580        0.1691966627363242
-        2.6324333062086742       -1.8621830580570025       -0.0350089141650482       -0.6800109224217911
-        0.7372848754464276        0.7930529351111025       -0.6641313148841875       -0.9821368279659007
+        0.5026432275214318        0.9188965795145948       -0.4313836517364189        0.8921713087406896
-        1.1304132482009144        0.9487788021581413        0.5845967235191317       -0.3335771210350215
+        1.5126977632912262       -0.2646091145210346       -0.1127481020519616        0.9988617281482304
+        4.4805610331196819        2.9948357068304068       -0.1821487507594076        0.0655379221577991
+        2.1657739011438304        1.9436559243531395       -0.0669607721654972        0.9908754307264420
-        1.8897600180336682        1.9813790774158084       -0.7379224369094383       -0.6595771554465193
-        2.0331336587443802        2.1365247488375525        0.5890062386820784       -0.5578053818499882
+       -0.0603350636800880        4.3067150882353031       -0.2401624943935288        0.0943160920587207
