21
s                      x[A]                      y[A]                      z[A]                      q[e]
N -2.0751288254096671 1.5944642558148947 -0.3746178329584237 0.0690680479201058
O -1.8686201866696730 -0.1405634570823677 0.4171411449124159 -0.3117950550350966
N -1.9838649193204516 -0.3260786025934489 0.0991921934284867 0.5776243102962968
N -3.3230874790047316 -0.5109885801030245 0.1108359120138339 0.0604184539076988
O -1.8533622216065364 -0.3157931300315536 -0.2316267850748417 -0.3968494342195521
O -0.9426004076266636 -0.0238121367243883 0.1013319265123406 -0.9828651838991298
N -0.7546989176308326 0.0591943140082848 0.0918697825188975 0.7759263489545838
N -1.0773490500346341 -1.2905169288628489 0.0842314684512658 0.9970342621901004
O -1.1127785835079356 -1.2706408750411893 -0.1981533882737597 -0.3970377457969525
O -1.1503165953057743 -1.2568494880415035 0.3533141286835759 -0.3893757401670396
N 1.7260885088057454 -1.3377551436139024 -0.0452162096432935 0.1691966627363242
O 1.4008013811190199 -0.9583725420037326 -0.0142422960031906 -0.6800109224217911
O 0.3924625995938190 0.4482556942557807 -0.3514388831112296 -0.9821368279659007
N 0.2640435027760861 0.4619238026446107 -0.2308928488043540 0.8921713087406896
O 0.5987214690810276 0.5121393330359088 0.3127859032798235 -0.3335771210350215
N 0.7973859231667305 -0.1754938647467175 -0.0648714091117275 0.9988617281482304
N 2.3710813385207024 1.5834728047064774 -0.0962736389314400 0.0655379221577991
N 1.1440496845892030 1.0061698372496120 -0.0390441419147718 0.9908754307264420
O 1.0023552826187303 1.0642482490832479 -0.3907211244160388 -0.6595771554465193
O 1.0766547748683131 1.1440453579426613 0.3164649462759467 -0.5578053818499882
N -0.0356072538301472 2.2787558944427846 -0.1282302663700596 0.0943160920587207
