21
s                      x[A]                      y[A]                      z[A]                      q[e]
N       -1.8330366710545947        1.1606522526359406       -1.2938038281643771        0.0707249461841811
O       -1.6936722143071989        0.3039046641466430        0.0459699289327194       -0.3496602100029151
N       -1.4876608361169086        0.1220479207838342       -0.4303632304001793        0.9824851761690530
N       -3.1393495861364320       -0.2531544636254054        0.0936700787611713        0.1071394941056757
O       -1.5328777222365009       -0.0334526492215524       -0.4713601248703854       -0.8194842575378962
N       -0.6207036739759618       -0.1832072928515727        0.4516999875906512        0.3116552922920345
N       -0.9950524131171116       -1.3119363420720067        1.2894569271076433        0.0918298459672651
N       -1.4288321202236427       -0.4079452492332545        0.5521960153050057        0.5593901217632046
O       -1.0835228427083601       -0.3406789671744012        0.4742681133825636       -0.9963138680841535
N        1.2136780839483898       -0.5944166896922513       -0.0766607049269764        0.9989733053171830
O        1.2558411697425729       -0.6758526366473728       -0.0854505922037156       -0.8354521971080898
N        1.5304150954570908       -1.3863884567598870       -0.2845896076382482        0.2899344186932475
O        1.3110352636037015       -1.0653460400013111       -0.2278983798493608       -0.8678253524624289
N        0.3017427359807798        0.3094567213644234        0.2012014784235037        0.9219570073558310
O        0.5343502660666616        0.2474361707144018        0.2955935158770000       -0.9704818863270434
O        0.4696013083741891        0.3830594529990706       -0.3598646209816671       -0.3320651923316272
N        0.7801635468488182       -0.2302976493751724       -0.0187355393866438        0.9769593393400061
O        1.0962174400135469        0.9705706287779036        0.5725576180036890       -0.1970026432733326
O        0.8884802415984435        1.0709774817452085       -0.4058621241470376       -0.1946060569702309
N        2.2865122718266884        1.3658487842150964       -0.1866123884254201        0.1283355164991325
N        0.3526113397801323        2.2099698636040377        0.3797799938482134        0.1235072004109040

        RMSE         6.716940075E-01 kcal/mol

Coordinates in bohr
s                   x[bohr]                   y[bohr]                   z[bohr]                      q[e]
+       -3.4639372862141147        2.1933148843776165       -2.4449348952995740        0.0707249461841811
-       -3.2005766313383233        0.5742965834863981        0.0868705756895996       -0.3496602100029151
+       -2.8112715478305588        0.2306371444630189       -0.8132686399236454        0.9824851761690530
+       -5.9325109298672363       -0.4783926036891920        0.1770107950086778        0.1071394941056757
-       -2.8967190788426036       -0.0632163451997441       -0.8907415424666315       -0.8194842575378962
+       -1.1729599488800333       -0.3462116076760202        0.8535892674190303        0.3116552922920345
+       -1.8803765412672615       -2.4792003805510490        2.4367204428078839        0.0918298459672651
+       -2.7001013864799179       -0.7709047952324860        1.0434992364955800        0.5593901217632046
-       -2.0475614233963211       -0.6437899446634557        0.8962368443306258       -0.9963138680841535
+        2.2935191831328714       -1.1232847479196062       -0.1448677368965209        0.9989733053171830
-        2.3731958678880591       -1.2771763844320971       -0.1614782165232044       -0.8354521971080898
+        2.8920653886803005       -2.6198944867723188       -0.5377964165877903        0.2899344186932475
-        2.4774975890284052       -2.0132122444435181       -0.4306655223508489       -0.8678253524624289
+        0.5702111313500035        0.5847884510608745        0.3802156902576346        0.9219570073558310
-        1.0097756579315120        0.4675865961822483        0.5585907894687002       -0.9704818863270434
-        0.8874178609838832        0.7238774559359287       -0.6800455758970356       -0.3320651923316272
+        1.4742954366100540       -0.4351994846557901       -0.0354050382534849        0.9769593393400061
-        2.0715507355760994        1.8341126738036357        1.0819770890714744       -0.1970026432733326
-        1.6789843245016618        2.0238541270309547       -0.7669682593344654       -0.1946060569702309
+        4.3208819762508242        2.5810801309560794       -0.3526463057416003        0.1283355164991325
+        0.6663388609152032        4.1762377877270227        0.7176801763011821        0.1235072004109040
