25
s                      x[A]                      y[A]                      z[A]                      q[e]
N        2.1611803015313402        0.9151354283430699       -0.2956121718150547        0.1158659338886357
O        1.4912214515275439       -0.6139865537487365       -0.6553086880935031       -0.2341991647481463
N        2.9280774153743416       -1.3320600117549946       -0.6331716341867428        0.0569852111266852
N        1.8555765815786882       -0.9159672049104438       -0.2800496743665394        0.3189271149812888
O        1.7421891146932356       -0.7089075144031312        0.0803665633972085       -0.2877498234141676
N        1.0141142733486568       -1.1393838228487130        0.0211078384425530        0.5692545008206258
O        0.5539782592143101       -0.5900699395271179       -0.4413226817937587       -0.2058946535748549
O        0.8928595651591616       -0.8794167574648638        0.1223102917104585       -0.9992971180892700
N        0.5378788149815020       -0.4589912846018677        0.0617110444839788        0.6691943173322236
N        0.2076423841032276       -2.1632811207570484        0.0864614645331278        0.0628076875181509
N       -0.0709010386925657        1.8334071138487888        0.3157846989191133        0.7576134719858190
O       -0.1637007859604316        1.4891754584792374        0.2458544083845041       -0.9235083265987739
N       -0.3270462040593357        1.1038860050897343        0.3429634798627199        0.9955526175656415
O       -0.1220160531706720        1.6419746762938767        0.3713691471990475       -0.9936641819349231
O       -0.4561971274087878        0.0476958852620096        0.4722206359125313       -0.9934394819660318
N       -0.3939063288101083        0.4608914475507834        0.2951845676865393        0.8475065253219278
N       -0.5277986925700584       -0.2275824126206137        0.3822636902056099        0.9207393412409772
O       -0.7621433488599850        0.0182120543613239        0.1646712076787732       -0.6738758902636315
N       -2.8068531058447306       -0.0252113481902722       -0.5297258573589834        0.1207489421105395
N       -1.2704231459945516       -0.2570173080354729        0.4733755022580985        0.4308753055723465
O       -1.4915119767732741       -0.0339301726031308        0.2038940640039058       -0.7095764258838037
N       -1.5802673239673046       -0.1215796224844764       -0.0938903659118330        0.9977500474782615
O       -1.5638618425094417       -0.3295523450181069        0.0251589649053929       -0.9963537733476465
O       -2.1601904638745149       -0.5350742337119037        1.4604326268073413       -0.1586318904925156
N       -2.1337245233653142       -0.6659177433719247        1.3472715868955500        0.3123697133706422

        RMSE         4.172982736E+00 kcal/mol

Coordinates in bohr
s                   x[bohr]                   y[bohr]                   z[bohr]                      q[e]
+        4.0840388776286005        1.7293553272719395       -0.5586260440822371        0.1158659338886357
-        2.8180001357947440       -1.1602664312988042       -1.2383539481297881       -0.2341991647481463
+        5.5332643891959261       -2.5172286048910748       -1.1965209790215148        0.0569852111266852
+        3.5065315439969762       -1.7309271571818496       -0.5292171860764069        0.3189271149812888
-        3.2922602855240517       -1.3396410505009686        0.1518707944649677       -0.2877498234141676
+        1.9163982365466381       -2.1531233769612270        0.0398880337568355        0.5692545008206258
-        1.0468671893729307       -1.1150705805717156       -0.8339790015427777       -0.2058946535748549
-        1.6872600466461838       -1.6618568217467637        0.2311329536576215       -0.9992971180892700
+        1.0164436490008419       -0.8673678218695988        0.1166169729906649        0.6691943173322236
+        0.3923872379922184       -4.0880088506042851        0.1633884883735970        0.0628076875181509
+       -0.1339835451394377        3.4646373216402910        0.5967465955672828        0.7576134719858190
-       -0.3093496519874077        2.8141337692788539        0.4645974985831755       -0.9235083265987739
+       -0.6180277560427387        2.0860422233453439        0.6481070479745116        0.9955526175656415
-       -0.2305769234018704        3.1028824431326991        0.7017859796510340       -0.9936641819349231
-       -0.8620876300231998        0.0901321604564585        0.8923676726642195       -0.9934394819660318
+       -0.7443750805356432        0.8709586094367917        0.5578179893892279        0.8475065253219278
+       -0.9973949783321239       -0.4300684308238971        0.7223736821954587        0.9207393412409772
-       -1.4402421976846334        0.0344157949248520        0.3111834832612694       -0.6738758902636315
+       -5.3041836444372343       -0.0476425433331713       -1.0010367919818177        0.1207489421105395
+       -2.4007518093722289       -0.4856923216894753        0.8945500537688499        0.4308753055723465
-       -2.8185491489417056       -0.0641187336094297        0.3853039395739514       -0.7095764258838037
+       -2.9862724473083451       -0.2297521889322150       -0.1774270773923859        0.9977500474782615
-       -2.9552705803967076       -0.6227636760866087        0.0475435532711976       -0.9963537733476465
-       -4.0821683555485357       -1.0111437585047121        2.7598176893488353       -0.1586318904925156
+       -4.0321549763334863       -1.2584021570558475        2.5459743158435475        0.3123697133706422
