21
s                      x[A]                      y[A]                      z[A]                      q[e]
N 0.0271984565191008 -0.0450243346213317 0.3788074081983310 0.0707249461841811
O 0.1028048081611540 0.2923703842674945 0.3139069444516585 -0.3496602100029151
N 0.3753596305454910 -0.1822764355217211 0.3124058910728146 0.9824851761690530
N 0.0336457010611659 -0.0110070913387004 -0.1884913504090536 0.1071394941056757
O 0.2563743936134167 -0.3289978021751241 0.3210080346028978 -0.8194842575378962
N 0.1011331318646138 0.1261682519451062 0.2906848283010079 0.3116552922920345
N 0.0297640749502886 -0.0163093213716109 0.2435969480872993 0.0918298459672651
N 0.0909411480529780 0.0397428669405848 -0.5502758555222839 0.5593901217632046
O 0.0474153226095593 0.0585278311054002 -0.1987845403567869 -0.9963138680841535
N 0.2263186640735179 0.0842525704631263 -0.4262998675833642 0.9989733053171830
O 0.2005791463316106 0.0998850449867652 -0.3289609996468595 -0.8354521971080898
N 0.0344599067506492 0.0064671299408492 0.4289356775711893 0.2899344186932475
O 0.0348283587134315 -0.0024864713939498 0.0417106334445920 -0.8678253524624289
N 0.0011218927728881 0.0786092634955532 -0.3512905158974374 0.9219570073558310
O 0.1206948398162114 0.2419184635780346 -0.1782909986819019 -0.9704818863270434
O 0.2581489303297530 -0.4185797386499199 -0.1999453221352733 -0.3320651923316272
N 0.0923177418099373 0.0130189249724065 0.3959823597016031 0.9769593393400061
O 0.1996733732285256 -0.5144377957588978 -0.0956064304444765 -0.1970026432733326
O 0.2308439914601104 0.4896804246577970 -0.0748287649621872 -0.1946060569702309
N 0.0218175340267481 -0.0000566462349801 0.1847041146048675 0.1283355164991325
N 0.0371600737975824 0.0045553282255521 -0.1492128205201027 0.1235072004109040
