21
s                      x[A]                      y[A]                      z[A]                      q[e]
N        1.9094850392437757        1.3273835441513142       -1.0058043071834293        0.0707249461841811
O        1.6429030932471467       -0.0886029520447114       -0.3732368837570504       -0.3496602100029151
N        1.5350471468063041        0.3494524700799840       -0.0633134579455691        0.9824851761690530
N        3.1177704418475956       -0.4057445106166425        0.0653622296119546        0.1071394941056757
O        1.6053783010172191        0.3283922052632154        0.1109525367491630       -0.8194842575378962
N        0.6613198863601990       -0.2707813267980203        0.1027777958205308        0.3116552922920345
N        0.9135705312839812       -1.6256983300159593        0.9235562123735259        0.0918298459672651
N        1.4212724906792489       -0.5795898918873056        0.3074663513382376        0.5593901217632046
O        1.0845747164689767       -0.4962017702267913        0.2334761695317634       -0.9963138680841535
N       -1.2481069345005524       -0.4998265361445636       -0.2071467427184810        0.9989733053171830
O       -1.2902143879357562       -0.5880981241187567       -0.2357271794925213       -0.8354521971080898
N       -1.6808334104712426       -1.2648147594750534       -0.2499136735666828        0.2899344186932475
O       -1.4290262276229828       -0.9791141407034608       -0.1792607427562140       -0.8678253524624289
N       -0.2374163821605089        0.3025398648012169        0.0253331854254301        0.9219570073558310
O       -0.4101356821645776        0.2645548422750590       -0.1737185639333873       -0.9704818863270434
O       -0.6122950262170841        0.3346409188778116        0.4664688721727747       -0.3320651923316272
N       -0.8053900919592278       -0.1918692537337054       -0.0379203874557128        0.9769593393400061
O       -0.7699485879809516        1.1321939405864176       -0.4215128419540528       -0.1970026432733326
O       -0.9869190605339391        0.9960299724883693        0.5501043188806817       -0.1946060569702309
N       -2.1466962695899476        1.5363510248654402       -0.1173053262720160        0.1283355164991325
N       -0.1171155423624517        2.1821829554317884        0.3560370709036015        0.1235072004109040

        RMSE         1.528496555E+00 kcal/mol

Coordinates in bohr
s                   x[bohr]                   y[bohr]                   z[bohr]                      q[e]
+        3.6084037648298293        2.5083913618855429       -1.9006946763825370        0.0707249461841811
-        3.1046368969046116       -0.1674353132715782       -0.7053154902201646       -0.3496602100029151
+        2.9008186971293708        0.6603694623159158       -0.1196450955728174        0.9824851761690530
+        5.8917322571395978       -0.7667460019733705        0.1235167129158839        0.1071394941056757
-        3.0337253166753406        0.6205713296826079        0.2096699073807131       -0.8194842575378962
+        1.2497134665396701       -0.5117025475363529        0.1942218858790274        0.3116552922920345
+        1.7263981004157274       -3.0721246063443206        1.7452683028511302        0.0918298459672651
+        2.6858157570310941       -1.0952661607507195        0.5810271968230630        0.5593901217632046
-        2.0495491767224419       -0.9376854486959898        0.4412060172359943       -0.9963138680841535
+       -2.3585802814907764       -0.9445352635494734       -0.3914506115186047        0.9989733053171830
-       -2.4381518363237795       -1.1113443894799551       -0.4454598095675043       -0.8354521971080898
+       -3.1763148083098884       -2.3901534948446677       -0.4722683980480999        0.2899344186932475
-       -2.7004681963035959       -1.8502575714925218       -0.3387537088553927       -0.8678253524624289
+       -0.4486519399803935        0.5717174865073388        0.0478727823395027        0.9219570073558310
-       -0.7750441135688705        0.4999361970635541       -0.3282805087419380       -0.9704818863270434
-       -1.1570699075303097        0.6323796870506143        0.8814984144577405       -0.3320651923316272
+       -1.5219666979602355       -0.3625803414526800       -0.0716591468625438        0.9769593393400061
-       -1.4549919619669693        2.1395364686112015       -0.7965438296565501       -0.1970026432733326
-       -1.8650067324032804        1.8822238607503134        1.0395465031160083       -0.1946060569702309
+       -4.0566680240669850        2.9032826695621319       -0.2216749397115832        0.1283355164991325
+       -0.2213163000994880        4.1237281414082263        0.6728125545180169        0.1235072004109040
