25
s                      x[A]                      y[A]                      z[A]                      q[e]
N       -1.9057562381888007        1.2757092784562052        0.3656086845696379        0.1158659338886357
O       -1.7353050245261117       -0.4068052113872127        0.4660652582113631       -0.2341991647481463
N       -3.2857123654519302       -0.6615653156940547        0.0863522233515647        0.0569852111266852
N       -2.0944990564204442       -0.5269116615035138       -0.0043817525623488        0.3189271149812888
O       -1.8705226197566966       -0.3057870696483116       -0.2986074622135250       -0.2877498234141676
N       -1.2848399187345683       -0.9479667099242921       -0.2646690635480275        0.5692545008206258
O       -0.8614811589964548       -0.5162779945429132        0.3699418447827995       -0.2058946535748549
O       -1.0760455009738947       -0.7307347577405198       -0.3064145537507023       -0.9992971180892700
N       -0.6608665129637560       -0.4139823198119728       -0.0988577865982423        0.6691943173322236
N       -0.7940525374914047       -2.1212475856278408       -0.4121818168155738        0.0628076875181509
N        0.5566451328014016        1.6283818853905965       -0.0641129926572355        0.7576134719858190
O        0.5337586132986495        1.2749267659676560        0.0167767901614975       -0.9235083265987739
N        0.6159512314110215        0.8573253786671039       -0.0416467934579371        0.9955526175656415
O        0.5721000638360214        1.4281960189661667       -0.1092297050209775       -0.9936641819349231
O        0.4875339804934713       -0.2041547625417054       -0.1690627976354857       -0.9934394819660318
N        0.4888581691010420        0.2179308731346484       -0.0023461265484730        0.8475065253219278
N        0.4512905426075819       -0.4842756117432174       -0.0730633155928685        0.9207393412409772
O        0.6661723650273883       -0.3015157664065086        0.2152134051266769       -0.6738758902636315
N        2.8350244042166777       -0.0534767832511796        0.2265540274306345        0.1207489421105395
N        1.1413359499775559       -0.7150792743286335        0.1138135621193537        0.4308753055723465
O        1.4337072498221217       -0.4554739705683526       -0.1498722105469610       -0.7095764258838037
N        1.5559239751900422       -0.2467325650987691        0.0639632451267936        0.9977500474782615
O        1.4982317758608681       -0.4384212046459083        0.1967096647134406       -0.9963537733476465
O        1.8370685436595695       -1.9094325627801756       -0.2364171674016413       -0.1586318904925156
N        1.8135084167909103       -1.8609299539270143       -0.0699290046468192        0.3123697133706422

        RMSE         3.872898289E-01 kcal/mol

Coordinates in bohr
s                   x[bohr]                   y[bohr]                   z[bohr]                      q[e]
+       -3.6013573520596083        2.4107411519876463        0.6909002829255151        0.1158659338886357
-       -3.2792512404852303       -0.7687504359308103        0.8807356946102614       -0.2341991647481463
+       -6.2090964977343512       -1.2501772607638111        0.1631820524588214        0.0569852111266852
+       -3.9580295866644830       -0.9957187325515817       -0.0082803122923623        0.3189271149812888
-       -3.5347754628140486       -0.5778538143416069       -0.5642863226015594       -0.2877498234141676
+       -2.4279955614638267       -1.7913974578082374       -0.5001520439871657        0.5692545008206258
-       -1.6279634527452898       -0.9756240142867172        0.6990887689861209       -0.2058946535748549
-       -2.0334312953717260       -1.3808885624823570       -0.5790395874432041       -0.9992971180892700
+       -1.2488567149878242       -0.7823132052263229       -0.1868141420396332        0.6691943173322236
+       -1.5005418250835891       -4.0085769811252723       -0.7789107476750625        0.0628076875181509
+        1.0519068500637510        3.0771957910448853       -0.1211559972056638        0.7576134719858190
-        1.0086575962386002        2.4092624176945376        0.0317035386695057       -0.9235083265987739
+        1.1639791340053278        1.6201101660852517       -0.0787010336390099        0.9955526175656415
-        1.0811124370070209        2.6988993293152288       -0.2064142272541933       -0.9936641819349231
-        0.9213056999869599       -0.3857965884116999       -0.3194823855347673       -0.9934394819660318
+        0.9238080537937199        0.4118296645063806       -0.0044335366322796        0.8475065253219278
+        0.8528155285375867       -0.9151482754332297       -0.1380696562884139        0.9207393412409772
-        1.2588833222502844       -0.5697822210158191        0.4066943942166210       -0.6738758902636315
+        5.3574196829587697       -0.1010564744151997        0.4281250644633594        0.1207489421105395
+        2.1568123625968165       -1.3513039864722440        0.2150764617683601        0.4308753055723465
-        2.7093140462471568       -0.8607210616490260       -0.2832174317507085       -0.7095764258838037
+        2.9402701851428206       -0.4662569742683683        0.1208730153851650        0.9977500474782615
-        2.8312477288353595       -0.8284960043740658        0.3717273925390385       -0.9963537733476465
-        3.4715564212102534       -3.6083045986855926       -0.4467636977456184       -0.1586318904925156
+        3.4270342339474471       -3.5166479515829114       -0.1321466670083561        0.3123697133706422
