25
s                      x[A]                      y[A]                      z[A]                      q[e]
N -2.0483384580458699 1.1343434485967376 -0.1064568377471962 0.1158659338886357
O -1.7982416700440913 -0.4947892453938810 0.2080949946458055 -0.2341991647481463
N -3.1155258144460620 -0.9601404594816084 -0.5827542767375066 0.0569852111266852
N -1.9655912881626687 -0.7083134739542377 -0.3317508947062308 0.3189271149812888
O -1.6733582074523061 -0.4902954738137247 -0.5643493842414200 -0.2877498234141676
N -1.1136438373676310 -1.0484047540920758 -0.2361219463754421 0.5692545008206258
O -0.8476847526195243 -0.5890865963663742 0.5422004153896969 -0.2058946535748549
O -0.9363321574707989 -0.7935514509469260 -0.2321586681330051 -0.9992971180892700
N -0.6096162329730438 -0.4583482360285013 0.1005321236405964 0.6691943173322236
N -0.4995145996168313 -2.1823898569963793 -0.0690194269093314 0.0628076875181509
N 0.3480462625620051 1.7232237127254668 0.2900914222521108 0.7576134719858190
O 0.3365094820464931 1.3667813987854995 0.3577308099189404 -0.9235083265987739
N 0.4935964901872880 0.9646080939660256 0.3088161426717664 0.9955526175656415
O 0.3669044461182659 1.5261441856656486 0.2382599853485646 -0.9936641819349231
O 0.5076548986766088 -0.0960425956130760 0.1527822570730238 -0.9934394819660318
N 0.4443821621903048 0.3135250806948376 0.3269717566613298 0.8475065253219278
N 0.5041657303851854 -0.3869017994809325 0.2447354077056410 0.9207393412409772
O 0.6585210220212147 -0.1801357304578572 0.5528706538908545 -0.6738758902636315
N 2.8155769523269387 0.0262905217575012 -0.3939207722622561 0.1207489421105395
N 1.2068620759945081 -0.5292162184958189 0.4511117127906694 0.4308753055723465
O 1.2813469859028648 -0.9229067725124428 -0.1168854215554109 -0.7095764258838037
N 1.5664747290237955 -0.1756887947075061 -0.0932354409827601 0.9977500474782615
O 1.5621039248934050 -0.2711363088370904 0.1390683145362732 -0.9963537733476465
O 1.9408497465132839 -1.7560663998250012 0.4530522435090236 -0.1586318904925156
N 1.9555748889885320 -1.6230537267118355 0.5655823522611676 0.3123697133706422
