21
s                      x[A]                      y[A]                      z[A]                      q[e]
N       -2.0364443244613546        1.4501745442228828       -0.7714585303848187        0.0690680479201058
O       -1.8788744838823550       -0.1275560391968226        0.3488161559773885       -0.3117950550350966
N       -1.9784067486986536       -0.3391513909804009        0.0459105646227095        0.5776243102962968
N       -3.3227501265097836       -0.5088634389228711        0.0677747737578996        0.0604184539076988
O       -1.8186627144721572       -0.3982130477114356       -0.2638885412105201       -0.3968494342195521
O       -0.9060738683641830       -0.1381622015090259        0.2920831567913563       -0.9828651838991298
N       -0.7453722208980273        0.0142971177369666        0.2747538784873952        0.7759263489545838
N       -1.0252751537445339       -1.2897709802090065        0.4948916738029635        0.9970342621901004
O       -1.0091680687317413       -1.4012612504394264        0.2377811319315286       -0.3970377457969525
O       -1.0894265451665568       -1.2065705518741745        0.7481120393698925       -0.3893757401670396
N        1.7506759759496839       -1.2582107583170563       -0.3021989491703635        0.1691966627363242
O        1.4440130768354971       -0.9453761217665101       -0.1987656959168055       -0.6800109224217911
O        0.3411556545857917        0.4258937437669275       -0.2678024579364918       -0.9821368279659007
N        0.2032916757571347        0.5056190230494362       -0.1213198911127823        0.8921713087406896
O        0.6175416995452692        0.4624187301043833        0.3753719574485134       -0.3335771210350215
N        0.7693083590524630       -0.1111957900183351       -0.0866946562110846        0.9988617281482304
N        2.2811466433099059        1.6876481043154796       -0.0942994491267483        0.0655379221577991
N        1.0874774347685832        1.0894476331937462        0.0483926752109909        0.9908754307264420
O        0.9021325595127265        1.1002531623826410       -0.2796409743470664       -0.6595771554465193
O        1.0768794866113540        1.0801668113443554        0.4206555402434131       -0.5578053818499882
N       -0.1359871801724891        2.2380532194339420        0.3229030658942793        0.0943160920587207

        RMSE         5.075899093E-01 kcal/mol

Coordinates in bohr
s                   x[bohr]                   y[bohr]                   z[bohr]                      q[e]
+       -3.8483220429749401        2.7404327226918803       -1.4578453395754936        0.0690680479201058
-       -3.5505581986485795       -0.2410459797301584        0.6591670029322438       -0.3117950550350966
+       -3.7386469197979260       -0.6409032440210261        0.0867583934020541        0.5776243102962968
+       -6.2790877224338422       -0.9616125348228635        0.1280757606172965        0.0604184539076988
-       -3.4367744449340862       -0.7525135997584845       -0.4986770705344745       -0.3968494342195521
-       -1.7122314606424338       -0.2610887217423752        0.5519571721948211       -0.9828651838991298
+       -1.4085493590215257        0.0270176369062923        0.5192095822484962        0.7759263489545838
+       -1.9374892438138371       -2.4373139171583111        0.9352097252570136        0.9970342621901004
-       -1.9070512644601927       -2.6479999935470886        0.4493412171519442       -0.3970377457969525
-       -2.0587178041685048       -2.2800878940846974        1.4137268655668211       -0.3893757401670396
+        3.3082981289634983       -2.3776737413238465       -0.5710732493331382        0.1691966627363242
-        2.7287892367987809       -1.7865019556861750       -0.3756127284187937       -0.6800109224217911
-        0.6446907533184373        0.8048225342654050       -0.5060733012244097       -0.9821368279659007
+        0.3841655907663593        0.9554814773849833       -0.2292613677735237        0.8921713087406896
-        1.1669846831903237        0.8738447551792854        0.7093501947547000       -0.3335771210350215
+        1.4537821046345305       -0.2101295894385706       -0.1638291567796713        0.9988617281482304
+        4.3107424078631587        3.1891927133043398       -0.1782001326310976        0.0655379221577991
+        2.0550345193280526        2.0587576547644191        0.0914489026270049        0.9908754307264420
-        1.7047834663373382        2.0791771455720709       -0.5284448549721338       -0.6595771554465193
-        2.0350072998190893        2.0412194432499056        0.7949237642165545       -0.5578053818499882
+       -0.2569785270992934        4.2293076389293214        0.6101983596108502        0.0943160920587207
