21
s                      x[A]                      y[A]                      z[A]                      q[e]
N -2.0364443244613546 1.4501745442228828 -0.7714585303848187 0.0690680479201058
O -1.8788744838823550 -0.1275560391968226 0.3488161559773885 -0.3117950550350966
N -1.9784067486986536 -0.3391513909804009 0.0459105646227095 0.5776243102962968
N -3.3227501265097841 -0.5088634389228711 0.0677747737578996 0.0604184539076988
O -1.8186627144721572 -0.3982130477114356 -0.2638885412105201 -0.3968494342195521
O -0.9060738683641830 -0.1381622015090259 0.2920831567913563 -0.9828651838991298
N -0.7453722208980273 0.0142971177369666 0.2747538784873952 0.7759263489545838
N -1.0252751537445339 -1.2897709802090065 0.4948916738029635 0.9970342621901004
O -1.0091680687317413 -1.4012612504394264 0.2377811319315286 -0.3970377457969525
O -1.0894265451665568 -1.2065705518741745 0.7481120393698925 -0.3893757401670396
N 1.7506759759496839 -1.2582107583170563 -0.3021989491703635 0.1691966627363242
O 1.4440130768354971 -0.9453761217665101 -0.1987656959168055 -0.6800109224217911
O 0.3411556545857917 0.4258937437669275 -0.2678024579364918 -0.9821368279659007
N 0.2032916757571347 0.5056190230494362 -0.1213198911127823 0.8921713087406896
O 0.6175416995452692 0.4624187301043833 0.3753719574485134 -0.3335771210350215
N 0.7693083590524630 -0.1111957900183351 -0.0866946562110846 0.9988617281482304
N 2.2811466433099059 1.6876481043154796 -0.0942994491267483 0.0655379221577991
N 1.0874774347685832 1.0894476331937462 0.0483926752109909 0.9908754307264420
O 0.9021325595127265 1.1002531623826410 -0.2796409743470664 -0.6595771554465193
O 1.0768794866113540 1.0801668113443554 0.4206555402434131 -0.5578053818499882
N -0.1359871801724891 2.2380532194339420 0.3229030658942793 0.0943160920587207
