25
s                      x[A]                      y[A]                      z[A]                      q[e]
N 1.7725852756028326 1.0804422090591590 -1.0064603216180583 0.1158659338886357
O 1.7125888398977549 -0.5071330799019617 -0.4266173612307805 -0.2341991647481463
N 3.3090807288884641 -0.5242303458110648 -0.1179342378691125 0.0569852111266852
N 2.1182550890545375 -0.4202633333499226 0.0175184575450342 0.3189271149812888
O 1.9012318591592299 -0.1108137725712840 0.2201834000143458 -0.2877498234141676
N 1.3436647084493787 -0.7797603866201024 0.5098567712263877 0.5692545008206258
O 0.9475791665247482 -0.3842703370451952 -0.1690710400214010 -0.2058946535748549
O 1.1087096744165945 -0.5825079402738778 0.5199749383601049 -0.9992971180892700
N 0.6906779307319291 -0.3088790796315449 0.2791926613013459 0.6691943173322236
N 0.9778651466376950 -1.7746914312161310 1.1356786514091834 0.0628076875181509
N -0.7084659234106218 1.6079313964451805 0.1220709636319521 0.7576134719858190
O -0.6452192116454635 1.2626984459853234 0.0470550463689338 -0.9235083265987739
N -0.6934851927904498 0.8376005720874610 0.0898685799174679 0.9955526175656415
O -0.7096343378504030 1.4088900112406142 0.1678133588464093 -0.9936641819349231
O -0.4840594613277250 -0.2093209197572043 0.2243213017007181 -0.9934394819660318
N -0.5054109021759119 0.2102177054643675 0.0616584618592165 0.8475065253219278
N -0.4113273012436007 -0.4848054362267240 0.1334548065005704 0.9207393412409772
O -0.6119059432686577 -0.3182780979005455 -0.1746306697221933 -0.6738758902636315
N -2.7628246676633657 -0.2622164711114784 -0.4827802446860867 0.1207489421105395
N -1.0430735604607304 -0.7701858871150022 -0.1600265693961641 0.4308753055723465
O -1.3897615979999727 -0.5468782193349613 0.0662935720433462 -0.7095764258838037
N -1.5010773706696436 -0.3447675917367962 -0.1562829913769385 0.9977500474782615
O -1.4093232211320372 -0.5245456126246175 -0.2829639535336928 -0.9963537733476465
O -1.6607135244184248 -2.0330644407259286 0.0656989357697921 -0.1586318904925156
N -1.6203255296670795 -1.9766146606966224 -0.0925011894669940 0.3123697133706422
