25
s                      x[A]                      y[A]                      z[A]                      q[e]
N -1.8282496511000337 1.1275952733859245 -1.0703943205676580 0.1158659338886357
O -1.8787900862439342 0.1351191727788153 0.2925428815167673 -0.2341991647481463
N -3.3651290225230950 -0.3343151306924829 0.0518259979322039 0.0569852111266852
N -2.1495566759793094 -0.3009162621665062 0.0761665857846690 0.3189271149812888
O -1.8692511301940431 -0.3830194500028150 -0.3084274674687999 -0.2877498234141676
N -1.3790270996604861 -0.6151650952781025 0.5381999023952907 0.5692545008206258
O -0.9024046737041231 -0.5185818050198794 -0.1813751147351876 -0.2058946535748549
O -1.0871644535434180 -0.5513369295089187 0.5232539163684813 -0.9992971180892700
N -0.6131350087417320 -0.5336600349737959 0.2450627328550564 0.6691943173322236
N -0.9770183912745404 -1.6055217941919651 1.2219956400421430 0.0628076875181509
N 1.5690770170366410 -1.1849906946615265 -0.2479726472324521 0.7576134719858190
O 1.3183887209218652 -0.9428419089719863 -0.2609917409623452 -0.9235083265987739
N 1.1153204864975861 -0.5739438593733308 -0.1253992153152982 0.9955526175656415
O 1.4611939159095966 -1.0406463115863818 -0.1722883979651464 -0.9936641819349231
O 0.3776925279545801 0.1158503722074279 0.1909721479124582 -0.9934394819660318
N 0.6116737299089050 -0.1806201968467571 -0.0349070849160052 0.8475065253219278
N 0.1628090956314387 0.2983446098862013 0.1612807003127187 0.9207393412409772
O 0.3870106902465559 0.3399502069283750 -0.1629132463619172 -0.6738758902636315
N 2.2031059582840959 1.5828200496960725 -0.1685804808843704 0.1207489421105395
N 0.5189931617655950 0.9485352400773276 0.0743324305527164 0.4308753055723465
O 0.9346229410115322 0.8933545648247276 0.2642846253120373 -0.7095764258838037
N 1.1194798145159002 0.8617388084908246 0.0145479413368563 0.9977500474782615
O 0.9428472457675421 0.9882540399627306 -0.0606884041524420 -0.9963537733476465
O 0.3359224045187691 2.2017395924270500 0.7266105997869901 -0.1586318904925156
N 0.3505354428774528 2.1824923671261365 0.5499522134756368 0.3123697133706422
