21
s                      x[A]                      y[A]                      z[A]                      q[e]
N        1.7666928966776967        0.6360340049799007       -1.6497581607467531        0.0690680479201058
O        1.8049157551676192       -0.5387777880407365       -0.1249350621545294       -0.3117950550350966
N        1.9690850894458176       -0.2665091668394052        0.0880186640434052        0.5776243102962968
N        3.3250481920881367       -0.3232092085453926        0.0407564550526520        0.0604184539076988
O        1.8526878290912365        0.0477236072155317        0.2006746147673948       -0.3968494342195521
O        0.7265697297282098       -0.6897482800410460        0.4723715046520441       -0.9828651838991298
N        0.5159222758590458       -0.7290981341295873        0.4136483697606479        0.7759263489545838
N        1.1666688466821158       -0.7282708828057907        1.1588151651361807        0.9970342621901004
O        1.1953142034118018       -0.4826737884914853        1.2916942834628897       -0.3970377457969525
O        1.1905198858718860       -0.9765050664986500        1.0449328407384146       -0.3893757401670396
N       -0.9128696512840159        1.7364979541771872       -0.0495054551225742        0.1691966627363242
O       -0.8192433597344082        1.2998801029628346        0.0071077140969149       -0.6800109224217911
O       -0.5324745102933327       -0.4154678876760839       -0.2705215862723127       -0.9821368279659007
N       -0.4765681763476355       -0.5745518364536257       -0.1349246900522976        0.8921713087406896
O       -0.8900230059361010       -0.3984024649976753        0.3321926857451478       -0.3335771210350215
N       -0.6661082867170826        0.2321520274456852       -0.0110791055063347        0.9988617281482304
N       -2.8209482467238667       -0.5400140136178424       -0.5471935427923055        0.0655379221577991
N       -1.5292203890321137       -0.6473409509482428       -0.1938446760453441        0.9908754307264420
O       -1.3169643714874468       -0.6788764961480755       -0.5037292511568956       -0.6595771554465193
O       -1.5790809396086030       -0.7221741251237823        0.1676688263034804       -0.5578053818499882
N       -1.0399653738691301       -2.2764793331954145       -0.1744034516855822        0.0943160920587207

        RMSE         1.196084432E+00 kcal/mol

Coordinates in bohr
s                   x[bohr]                   y[bohr]                   z[bohr]                      q[e]
+        3.3385657225126111        1.2019300758900928       -3.1175910970503944        0.0690680479201058
-        3.4107964567906950       -1.0181424618769599       -0.2360930509391118       -0.3117950550350966
+        3.7210315367752260       -0.5036293352504232        0.1663311689707184        0.5776243102962968
+        6.2834304369952712       -0.6107768853767759        0.0770185378940442        0.0604184539076988
-        3.5010725929514575        0.0901845473562780        0.3792200622421312       -0.3968494342195521
-        1.3730178002342313       -1.3034353447831670        0.8926527732627917       -0.9828651838991298
+        0.9749518033964995       -1.3777957920872370        0.7816821310897362        0.7759263489545838
+        2.2046845993329476       -1.3762325136483389        2.1898432921345679        0.9970342621901004
-        2.2588164783180944       -0.9121212681860658        2.4409484335643521       -0.3970377457969525
-        2.2497565312091750       -1.8453271358044327        1.9746368884922461       -0.3893757401670396
+       -1.7250736291689821        3.2815055508127013       -0.0935517518978085        0.1691966627363242
-       -1.5481455799979569        2.4564173905316804        0.0134316330212250       -0.6800109224217911
-       -1.0062309932416740       -0.7851205216302741       -0.5112117090790831       -0.9821368279659007
+       -0.9005833334059202       -1.0857456157761900       -0.2549707117611267        0.8921713087406896
-       -1.6818997265759577       -0.7528715465529049        0.6277531969386081       -0.3335771210350215
+       -1.2587622317932246        0.4387037513421140       -0.0209364751220244        0.9988617281482304
+       -5.3308196003985460       -1.0204785896469761       -1.0340459334964458        0.0655379221577991
+       -2.8898077207367687       -1.2232971070856089       -0.3663133486037960        0.9908754307264420
-       -2.4887019790969767       -1.2828906507302891       -0.9519103260684935       -0.6595771554465193
-       -2.9840305057908720       -1.3647113113760621        0.3168481614905376       -0.5578053818499882
+       -1.9652497365720130       -4.3019224700041905       -0.3295747590202668        0.0943160920587207
