25
s                      x[A]                      y[A]                      z[A]                      q[e]
N       -1.9343781339890604        1.2970638200975919        0.0036099622245696        0.1158659338886357
O       -1.7771604112857575       -0.3367668146559951        0.4398852807658128       -0.2341991647481463
N       -3.2848485331460404       -0.6803271097281588        0.0061716835352684        0.0569852111266852
N       -2.0901948495829461       -0.5450030917061072       -0.0324953395638487        0.3189271149812888
O       -1.8386932125356239       -0.3773518335626044       -0.3394183521578617       -0.2877498234141676
N       -1.2782599674693740       -0.9724586379230156       -0.1147448470027190        0.5692545008206258
O       -0.8263326238355773       -0.5374653888967101        0.4969389439125358       -0.2058946535748549
O       -1.0755516303284041       -0.7516625754729944       -0.1668743575861359       -0.9992971180892700
N       -0.6543935129374371       -0.4295669050982482        0.0181957075861828        0.6691943173322236
N       -0.7586727124297372       -2.1670712261538809       -0.0208111957602126        0.0628076875181509
N        0.5325837556860338        1.6291055560943184       -0.0046901689894491        0.7576134719858190
O        0.5191082033997249        1.2752255420900562        0.0753103341550477       -0.9235083265987739
N        0.6034541266487076        0.8594033896956168        0.0098465208732383        0.9955526175656415
O        0.5480448019588188        1.4294182424600745       -0.0514930834945435       -0.9936641819349231
O        0.4825053022652024       -0.2016334003181724       -0.1159533122258619       -0.9934394819660318
N        0.4876596298214864        0.2194188298693846        0.0525784800616850        0.8475065253219278
N        0.4556528653003645       -0.4825748473652933       -0.0198049986585606        0.9207393412409772
O        0.6841051392844554       -0.2984708008290765        0.2564251004982034       -0.6738758902636315
N        2.8511002568783312       -0.0222845089081812        0.0228447172893926        0.1207489421105395
N        1.1636956642386442       -0.7067066721076998        0.0756496881514802        0.4308753055723465
O        1.4229863256972159       -0.4378138973359607       -0.2117698698492801       -0.7095764258838037
N        1.5643254203701871       -0.2315661275399032       -0.0078529770374098        0.9977500474782615
O        1.5234027030969144       -0.4264925934384136        0.1259221280997564       -0.9963537733476465
O        1.8340610972349223       -1.8833499349774665       -0.3706854607500369       -0.1586318904925156
N        1.8275008621868942       -1.8382541975686846       -0.2014408856930875        0.3123697133706422

        RMSE         3.504487779E-01 kcal/mol

Coordinates in bohr
s                   x[bohr]                   y[bohr]                   z[bohr]                      q[e]
+       -3.6554448963134907        2.4510953872245520        0.0068218399276850        0.1158659338886357
-       -3.3583464583360749       -0.6363970478426481        0.8312627072675084       -0.2341991647481463
+       -6.2074640912578971       -1.2856319131105163        0.0116627916146546        0.0569852111266852
+       -3.9498958145542886       -1.0299065808523193       -0.0614072921294283        0.3189271149812888
-       -3.4746266004305517       -0.7130916183726677       -0.6414077275325567       -0.2877498234141676
+       -2.4155612556537496       -1.8376804940102571       -0.2168363351426995        0.5692545008206258
-       -1.5615423475802064       -1.0156623869274648        0.9390785050689413       -0.2058946535748549
-       -2.0324980151103453       -1.4204364064002342       -0.3153468331995128       -0.9992971180892700
+       -1.2366245177280002       -0.8117638031962232        0.0343849039968009        0.6691943173322236
+       -1.4336836453504285       -4.0951711117909184       -0.0393274603300909        0.0628076875181509
+        1.0064374371143472        3.0785633304799367       -0.0088631348721741        0.7576134719858190
-        0.9809723339039362        2.4098270227387006        0.1423159059697526       -0.9235083265987739
+        1.1403630286433997        1.6240370378148219        0.0186072277390242        0.9955526175656415
-        1.0356545801829413        2.7012089969828152       -0.0973078251600201       -0.9936641819349231
-        0.9118028753624792       -0.3810319043461472       -0.2191200034465798       -0.9934394819660318
+        0.9215431428047562        0.4146414952215625        0.0993589274094297        0.8475065253219278
+        0.8610591236978156       -0.9119342965550186       -0.0374260233797392        0.9207393412409772
-        1.2927713542658017       -0.5640280700130258        0.4845732116346042       -0.6738758902636315
+        5.3877986417225072       -0.0421116186767877        0.0431702590904633        0.1207489421105395
+        2.1990660987937667       -1.3354820613172793        0.1429571920825896        0.4308753055723465
-        2.6890544358392710       -0.8273483598842764       -0.4001870556389887       -0.7095764258838037
+        2.9561466155913418       -0.4375965609832546       -0.0148399758702137        0.9977500474782615
-        2.8788138876353142       -0.8059541961348340        0.2379583352433570       -0.9963537733476465
-        3.4658731711306827       -3.5590155755062205       -0.7004939995067171       -0.1586318904925156
+        3.4534761235712801       -3.4737969823780595       -0.3806681044295916        0.3123697133706422
