21
s                      x[A]                      y[A]                      z[A]                      q[e]
N       -2.0083324182582358        1.5600028371341645       -0.6035607608006919        0.0690680479201058
O       -1.8695625564443976       -0.0821121698344184        0.3940312289618055       -0.3117950550350966
N       -2.0060173859893649       -0.2825470779075135        0.0972242974404543        0.5776243102962968
N       -3.3457212621412302       -0.4388455847466275        0.1478025989914932        0.0604184539076988
O       -1.8761637654770353       -0.3370821571697588       -0.2279135156639990       -0.3968494342195521
O       -0.9369695929625413       -0.0181409142605350        0.1101359937701144       -0.9828651838991298
N       -0.7628826151721599        0.1071055683775347        0.0953628462890928        0.7759263489545838
N       -1.1206857803179524       -1.2352604412860879        0.1027779887522265        0.9970342621901004
O       -1.1402089748943252       -1.2477319710409658       -0.1787369061696917       -0.3970377457969525
O       -1.1622918712568358       -1.2309028120119601        0.3723044270672244       -0.3893757401670396
N        1.7115887718079934       -1.3388267504546592        0.0023191195786975        0.1691966627363242
O        1.4090279565960131       -0.9936679558140576        0.0186956952032253       -0.6800109224217911
O        0.3882089955690576        0.4170645866859741       -0.3808764145161580       -0.9821368279659007
N        0.2466718203551673        0.4983570980779172       -0.2555793714671545        0.8921713087406896
O        0.6081993160344237        0.5011101757418465        0.2789167410770489       -0.3335771210350215
N        0.7691062407101982       -0.1402573638625585       -0.1033402226034508        0.9988617281482304
N        2.3913755762466642        1.5605955947319576       -0.1595906096180543        0.0655379221577991
N        1.1514116613916192        1.0440144325642204       -0.0767576246308592        0.9908754307264420
O        1.0038980155732018        1.0357661996569352       -0.4247548335161391       -0.6595771554465193
O        1.0976145534620700        1.1109789048045993        0.2861239351403868       -0.5578053818499882
N       -0.0066973275102121        2.2997726080413239       -0.1216527545423825        0.0943160920587207

        RMSE         7.288675889E+00 kcal/mol

Coordinates in bohr
s                   x[bohr]                   y[bohr]                   z[bohr]                      q[e]
+       -3.7951982393864867        2.9479781171207642       -1.1405645379862706        0.0690680479201058
-       -3.5329612060907039       -0.1551695125541307        0.7446111076153792       -0.3117950550350966
+       -3.7908234624267232       -0.5339365947935967        0.1837272949025091        0.5776243102962968
+       -6.3224968775680219       -0.8292979665375194        0.2793064327247916        0.0604184539076988
-       -3.5454356832592873       -0.6369929588293750       -0.4306941248952009       -0.3968494342195521
-       -1.7706159185809016       -0.0342813596178234        0.2081268647806459       -0.9828651838991298
+       -1.4416392085484211        0.2024001907450371        0.1802096620305177        0.7759263489545838
+       -2.1177891974959269       -2.3343039276428859        0.1942222504670933        0.9970342621901004
-       -2.1546826883392951       -2.3578717032451033       -0.3377638011723709       -0.3970377457969525
-       -2.1964133145213092       -2.3260692017585067        0.7035534024525425       -0.3893757401670396
+        3.2344340181258420       -2.5300158877959777        0.0043825008559254        0.1691966627363242
-        2.6626769410799449       -1.8777602961320996        0.0353297436591314       -0.6800109224217911
-        0.7336086810645903        0.7881378454637564       -0.7197521110818890       -0.9821368279659007
+        0.4661421833393997        0.9417584280451893       -0.4829750153895730        0.8921713087406896
-        1.1493301369958326        0.9469609908321308        0.5270762524408559       -0.3335771210350215
+        1.4534001563227186       -0.2650480047789215       -0.1952847184643686        0.9988617281482304
+        4.5190449022150903        2.9490982666393775       -0.3015825443729785        0.0655379221577991
+        2.1758526976885455        1.9729013485716373       -0.1450508885930199        0.9908754307264420
-        1.8970923073239492        1.9573144473578794       -0.8026703058099385       -0.6595771554465193
-        2.0741908973600016        2.0994458612417768        0.5406958753535900       -0.5578053818499882
+       -0.0126561147667953        4.3459403800279759       -0.2298903884926488        0.0943160920587207
