21
s                      x[A]                      y[A]                      z[A]                      q[e]
N 1.9102601880197989 1.3238719655352640 -1.0065780942070859 0.0707249461841811
O 1.6422963068104064 -0.0782072249069458 -0.3681404841249556 -0.3496602100029151
N 1.5341241752871180 0.3366841286524683 -0.0684731076531760 0.9824851761690530
N 3.1173438101555386 -0.4095076943982434 0.0629937770087716 0.1071394941056757
O 1.6043300280749637 0.3384618061497818 0.1147580712918550 -0.8194842575378962
N 0.6601087439084481 -0.2808531621850361 0.1062935098000799 0.3116552922920345
N 0.9138354477795193 -1.6292936741104038 0.9212698292206439 0.0918298459672651
N 1.4185058379842426 -0.5918360261877741 0.3111750547111563 0.5593901217632046
O 1.0851765016843871 -0.4834332524486617 0.2285618214215339 -0.9963138680841535
N -1.2450387997077039 -0.5081745190678092 -0.2038269972188144 0.9989733053171830
O -1.2895924423869114 -0.5799727728056754 -0.2374384762998167 -0.8354521971080898
N -1.6778570654588054 -1.2692922849752000 -0.2481638997020119 0.2899344186932475
O -1.4290161507391972 -0.9707254899935285 -0.1813028138291265 -0.8678253524624289
N -0.2384298031699992 0.2920308150527067 0.0292411371104758 0.9219570073558310
O -0.4085498254244632 0.2732224005560672 -0.1764282347299207 -0.9704818863270434
O -0.6121529321228939 0.3415700031081884 0.4637025644812146 -0.3320651923316272
N -0.8039008255235043 -0.2014736409355255 -0.0347080257940918 0.9769593393400061
O -0.7682459393737388 1.1356920130104640 -0.4226142565303641 -0.1970026432733326
O -0.9864143856868212 0.9997745318505820 0.5491608288213037 -0.1946060569702309
N -2.1466248601233353 1.5348562170833244 -0.1171866685817188 0.1283355164991325
N -0.1188641785181481 2.1802558371747254 0.3567856263849237 0.1235072004109040
