21
s                      x[A]                      y[A]                      z[A]                      q[e]
N -0.0030253204428245 0.1434091802694094 -0.0759470399185975 0.0707249461841811
O 0.7511279695643234 -0.4855880539660943 -0.5983399238069330 -0.3496602100029151
N 0.8625474552850948 0.0193308922289978 0.5899467542585920 0.9824851761690530
N 1.4754964483697246 -0.5429300493750771 0.7791299236992930 0.1071394941056757
O 0.8504031409078674 0.1454514450541329 -0.6372538582072933 -0.8194842575378962
N -0.4203903101118077 0.1313877753140736 0.5619271054209644 0.3116552922920345
N -1.1191036939361600 -0.1079327259033521 0.3729144774405023 0.0918298459672651
N -0.0837410185912415 -0.1340438567706442 -0.0769625144951958 0.5593901217632046
O -0.1832868092978826 -0.0418838917340089 -0.4046712940943499 -0.9963138680841535
N 1.1392468516900516 0.4336423886893890 0.6336634068288248 0.9989733053171830
O 1.2857412296425694 0.5696634629337893 -0.4295784448487756 -0.8354521971080898
N 0.8430283740928757 -0.4708385681894360 -0.1375525724875878 0.2899344186932475
O 1.0956388124631289 -0.4176213178394242 0.1513022527819736 -0.8678253524624289
N -0.1399343982322140 0.3128444856336898 0.4054098868192001 0.9219570073558310
O 0.0412608790819843 0.5065827763698194 0.3833435208501162 -0.9704818863270434
O 0.1444073628525752 -0.1098551840924441 0.1287329169643051 -0.3320651923316272
N 0.5992071162044881 0.3074707494097440 0.5621906059475733 0.9769593393400061
O -0.0733318906869893 0.6749051574957936 0.5273247734996446 -0.1970026432733326
O 0.1242124504614761 -0.0393281469046864 -0.6517360190738281 -0.1946060569702309
N -0.1176953666787252 0.1488997805064413 0.2737207184742722 0.1283355164991325
N -0.8769416622730726 1.0432565280505532 -0.0267556054139844 0.1235072004109040
