21
s                      x[A]                      y[A]                      z[A]                      q[e]
N 0.0216535180425665 -1.2669040097704991 -0.3146418311957259 0.0707249461841811
O -0.1663291274113967 0.3166655632008135 0.5669195656205311 -0.3496602100029151
N 0.2933477893708959 0.1196721224788135 0.3446970179376551 0.9824851761690530
N 0.2345020436210218 0.1238048870715830 -0.2369046792966605 0.1071394941056757
O 0.2637366013248517 -0.0499304786020540 0.2665339561773777 -0.8194842575378962
N 0.3187837797938090 0.4157148370038775 0.4125693797213817 0.3116552922920345
N 0.0249240001181887 -1.3621636009889135 -0.2425170110010356 0.0918298459672651
N 0.4549380771670895 0.4696022964251126 -0.4200699181410672 0.5593901217632046
O 0.3498248487269007 0.4353233343295949 -0.0830654229279233 -0.9963138680841535
N 0.1116410687838720 0.1826864110754409 -0.3957328970507760 0.9989733053171830
O 0.0744780131130966 0.2062532581592614 -0.3038608297297749 -0.8354521971080898
N -0.2240094752566369 0.1722344357214853 0.4175700458868109 0.2899344186932475
O -0.1644662328035634 0.1504785983994587 0.0353887993420228 -0.8678253524624289
N 0.0952323123365391 0.1780145582651391 -0.3341815880857730 0.9219570073558310
O 0.2158223109584056 0.3206136020710098 -0.1445062252590804 -0.9704818863270434
O 0.2221433680467265 -0.3542331534874990 -0.1426578276692780 -0.3320651923316272
N 0.0527961637208935 0.1209465326822725 0.4180694757499254 0.9769593393400061
O 0.2404147781556578 -0.2913423792681935 0.1663984050023146 -0.1970026432733326
O 0.4319040207079283 0.6738848710992461 -0.0366137833322821 -0.1946060569702309
N 0.3883309014852454 0.4961964147993874 0.3124651693699479 0.1283355164991325
N -0.2330696974332399 0.3466189654629521 0.0733047931808471 0.1235072004109040
