21
s                      x[A]                      y[A]                      z[A]                      q[e]
N 0.0265402054206863 -0.0454100098330352 0.3783810804440871 0.0707249461841811
O 0.1038772319931505 0.2907291038157285 0.3153304263883461 -0.3496602100029151
N 0.3742725331148891 -0.1805123586504785 0.3116935892072612 0.9824851761690530
N 0.0333005350468889 -0.0117054462277665 -0.1888174123768129 0.1071394941056757
O 0.2575384507392079 -0.3296076225628154 0.3228226535146711 -0.8194842575378962
N 0.0996362979098480 0.1259887739991425 0.2890924127494637 0.3116552922920345
N 0.0290598992975016 -0.0156555634127876 0.2434457571029454 0.0918298459672651
N 0.0890127442914185 0.0392201665066218 -0.5515243314402245 0.5593901217632046
O 0.0487503363132874 0.0589701332289941 -0.1963355653463214 -0.9963138680841535
N 0.2233449295616540 0.0845084984102673 -0.4263641347785815 0.9989733053171830
O 0.2019934670844124 0.0992096736197212 -0.3298025989622198 -0.8354521971080898
N 0.0325930764951158 0.0066563880638698 0.4287614981026260 0.2899344186932475
O 0.0363136301329757 -0.0027184961654896 0.0404237707827674 -0.8678253524624289
N -0.0015069774465136 0.0790848438837648 -0.3504752005657766 0.9219570073558310
O 0.1225586540685740 0.2408224892053578 -0.1784276315641123 -0.9704818863270434
O 0.2603535740012102 -0.4190483455466849 -0.2002225529642446 -0.3320651923316272
N 0.0894851592383211 0.0135746541962483 0.3963409332597462 0.9769593393400061
O 0.1990920161444741 -0.5132823194118332 -0.0949220279387291 -0.1970026432733326
O 0.2299627336277688 0.4907425152512405 -0.0737579145004009 -0.1946060569702309
N 0.0220307403344144 -0.0011126249679847 0.1838973027874323 0.1283355164991325
N 0.0378321700287238 0.0036722842919757 -0.1488906057646688 0.1235072004109040
