21
s                      x[A]                      y[A]                      z[A]                      q[e]
N       -1.7068679197144356        0.6780873255771824       -1.6000592557113089        0.0707249461841811
O       -1.6423469441261374        0.1898526044733515       -0.0870154476323216       -0.3496602100029151
N       -1.4311116122096372       -0.1104083885890915       -0.4826263623874454        0.9824851761690530
N       -3.1108632611917595       -0.3108914127418830        0.0290655193565581        0.1071394941056757
O       -1.4805787028838830       -0.2945142915373429       -0.4714222578602666       -0.8194842575378962
N       -0.6378808957249993       -0.3811289049134968        0.2549995132515296        0.3116552922920345
N       -1.0819334673191399       -0.9863824294391017        1.6022557257144978        0.0918298459672651
N       -1.4192675089066384       -0.5328070448404207        0.5390861744006072        0.5593901217632046
O       -1.0915948771549799       -0.4273362250418132        0.4362032972637269       -0.9963138680841535
N        0.8988312842771987        0.8146393921097748       -0.0566119296491876        0.9989733053171830
O        0.8966338350974755        0.9124953631393395       -0.0699901643912352       -0.8354521971080898
N        0.9170889943775909        1.6877097341675362        0.0459335802418907        0.2899344186932475
O        0.8427208400043829        1.3058958734311892        0.0612238801541325       -0.8678253524624289
N        0.4169477808578997       -0.4003975008979571        0.0341199295684629        0.9219570073558310
O        0.5316475852324685       -0.2548088348120384       -0.1595833242593223       -0.9704818863270434
O        0.8202930250667002       -0.3245944318666154        0.4461971093154360       -0.3320651923316272
N        0.6756260857191069        0.3085814229841852        0.0577948622771783        0.9769593393400061
O        1.1826759382286163       -0.7449958999688928       -0.6593913245065223       -0.1970026432733326
O        1.4583908621142740       -0.7588702686437401        0.3067733312730946       -0.1946060569702309
N        2.6228880796430531       -0.5234984572583075       -0.5098082309540980        0.1283355164991325
N        1.1807125242990082       -2.1284328399643186       -0.1924101300256069        0.1235072004109040

        RMSE         8.243957538E-01 kcal/mol

Coordinates in bohr
s                   x[bohr]                   y[bohr]                   z[bohr]                      q[e]
+       -3.2255129005902239        1.2813993344850299       -3.0236737777982681        0.0707249461841811
-       -3.1035859273809896        0.3587694266595041       -0.1644353647092056       -0.3496602100029151
+       -2.7044090020386236       -0.2086416163865062       -0.9120316458382329        0.9824851761690530
+       -5.8786795774010070       -0.5874996248388290        0.0549258712780881        0.1071394941056757
-       -2.7978882556361371       -0.5565513510388203       -0.8908589568008629       -0.8194842575378962
+       -1.2054201935819717       -0.7202292487821672        0.4818792421704451        0.3116552922920345
+       -2.0445579392001521       -1.8639926466036332        3.0278245045470786        0.0918298459672651
+       -2.6820268905943254       -1.0068593924629237        1.0187252276379426        0.5593901217632046
-       -2.0628153577756940       -0.8075484288160403        0.8243047668501118       -0.9963138680841535
+        1.6985449602774345        1.5394453420969252       -0.1069810424706504        0.9989733053171830
-        1.6943923831531456        1.7243663270835381       -0.1322622421752054       -0.8354521971080898
+        1.7330470320451810        3.1893091768458794        0.0868018866189143        0.2899344186932475
-        1.5925115878240488        2.4677855491504874        0.1156963658291632       -0.8678253524624289
+        0.7879171144388385       -0.7566416180148937        0.0644773223043054        0.9219570073558310
-        1.0046683313503630       -0.4815189121417771       -0.3015687770402494       -0.9704818863270434
-        1.5501291599993765       -0.6133945780764841        0.8431903345771420       -0.3320651923316272
+        1.2767482652242064        0.5831343768441675        0.1092164611624210        0.9769593393400061
-        2.2349336184209649       -1.4078382155301836       -1.2460690128202159       -0.1970026432733326
-        2.7559593132663087       -1.4340569724892762        0.5797175787004959       -0.1946060569702309
+        4.9565401282533905       -0.9892687113178918       -0.9633979330073972        0.1283355164991325
+        2.2312233038230964       -4.0221551439629737       -0.3636024495121271        0.1235072004109040
