25
s                      x[A]                      y[A]                      z[A]                      q[e]
N       -2.4073443113641999        0.0679405202825023       -0.2984272758996739        0.1158659338886357
O       -1.0911879042268020        1.1656784546372274       -0.4091971502288816       -0.2341991647481463
N       -2.0106611872425284        2.4188125937602072       -0.0071925327838949        0.0569852111266852
N       -1.2600835605874297        1.4817406748411346        0.0757211779046274        0.3189271149812888
O       -1.2571557251728909        1.1530698588500112        0.3558032537984106       -0.2877498234141676
N       -0.4093392713480621        1.2042984597272863        0.2962124841077776        0.5692545008206258
O       -0.2786465974022220        0.6216253358442865       -0.3883319034815572       -0.2058946535748549
O       -0.4305826904702221        0.9002656451979826        0.3151056005638206       -0.9992971180892700
N       -0.3118416061722138        0.3980151710995840        0.0782910459095242        0.6691943173322236
N        0.7865282279590846        1.6826960052156292        0.4893081652449709        0.0628076875181509
N       -0.8916362375811488       -1.9071629657437086       -0.1299136371352412        0.7576134719858190
O       -0.6534067736474611       -1.6320446518648151       -0.1501421386622667       -0.9235083265987739
N       -0.3121263703457909       -1.4091162952923129       -0.0139841798023175        0.9955526175656415
O       -0.7618029423809163       -1.7680592766754410       -0.0478795579655649       -0.9936641819349231
O        0.2882010924684545       -0.6006666708131637        0.2705424575923615       -0.9934394819660318
N        0.0257677738506424       -0.8862356037582579        0.0320568806311833        0.8475065253219278
N        0.4911307839170458       -0.3869998209856292        0.2166530730135760        0.9207393412409772
O        0.5605879669690905       -0.6619014315691650       -0.0638803618355588       -0.6738758902636315
N        2.8854473655594681        0.1438750184350508       -0.2578696833129440        0.1207489421105395
N        1.1470056092621863       -0.7449695727259097        0.2178393707718248        0.4308753055723465
O        1.4665573132774863       -0.3595538346636977       -0.1157035934988788       -0.7095764258838037
N        1.6168248962746088       -0.0742564868551069       -0.0589820971921970        0.9977500474782615
O        1.5957390976750352       -0.1818502992522669        0.1602219554526628       -0.9963537733476465
O        1.9445628985346131       -1.6916081393596694        0.4162061904462956       -0.1586318904925156
N        1.9504672488953663       -1.5670571745801305        0.5397404980920978        0.3123697133706422

        RMSE         3.745045385E+00 kcal/mol

Coordinates in bohr
s                   x[bohr]                   y[bohr]                   z[bohr]                      q[e]
+       -4.5492214381572129        0.1283889761550420       -0.5639458198168251        0.1158659338886357
-       -2.0620462904009624        2.2028130296112765       -0.7732705452504093       -0.2341991647481463
+       -3.7995989749762602        4.5708933510150764       -0.0135919171099382        0.0569852111266852
+       -2.3812128247019877        2.8000840644008047        0.1430922881368144        0.3189271149812888
-       -2.3756800176280932        2.1789862367468364        0.6723707042257587       -0.2877498234141676
+       -0.7735391152423039        2.2757942621952751        0.5597604699052291        0.5692545008206258
-       -0.5265657548809083        1.1747016373914447       -0.7338409433578664       -0.2058946535748549
-       -0.8136833593515002        1.7012555095827755        0.5954632856635308       -0.9992971180892700
+       -0.5892952301883636        0.7521396671554514        0.1479486348446461        0.6691943173322236
+        1.4863229407843324        3.1798346022594965        0.9246584232632576        0.0628076875181509
+       -1.6849482925620201       -3.6040156818715192       -0.2455011941477135        0.7576134719858190
-       -1.2347598507127169       -3.0841174165426670       -0.2837275219621973       -0.9235083265987739
+       -0.5898333564867667       -2.6628438770222314       -0.0264262699155390        0.9955526175656415
-       -1.4395989226678620       -3.3411478064916516       -0.0904792515629004       -0.9936641819349231
-        0.5446211338231257       -1.1350955005274126        0.5112511501578519       -0.9934394819660318
+        0.0486940354404480       -1.6747425737328718        0.0605787248294301        0.8475065253219278
+        0.9281026733846247       -0.7313236722640462        0.4094149722344769        0.9207393412409772
-        1.0593577267987804       -1.2508124277141881       -0.1207163886643546       -0.6738758902636315
+        5.4527052703311911        0.2718843811374421       -0.4873030775200067        0.1207489421105395
+        2.1675264658694271       -1.4077884642513070        0.4116567501008118        0.4308753055723465
-        2.7713916693817064       -0.6794582748725340       -0.2186481034441839       -0.7095764258838037
+        3.0553562467807716       -0.1403244231948113       -0.1114600099983875        0.9977500474782615
-        3.0155098622910153       -0.3436472614193329        0.3027756150908372       -0.9963537733476465
-        3.6746913119568583       -3.1966760949850737        0.7865157116636411       -0.1586318904925156
+        3.6858489170874300       -2.9613088828902012        1.0199617202122582        0.3123697133706422
