21
s                      x[A]                      y[A]                      z[A]                      q[e]
N       -1.7574159753045582        1.0562788669842094       -1.2910158127256677        0.0707249461841811
O       -1.6603372077822989        0.1443180119743795        0.0154996173361865       -0.3496602100029151
N       -1.4219807473940098       -0.0023220516685518       -0.4519052714515934        0.9824851761690530
N       -3.0837938968242482       -0.4578986472980193       -0.0426426433115720        0.1071394941056757
O       -1.4597121270145121       -0.1831044493846961       -0.4963770021504720       -0.8194842575378962
N       -0.5982573451593688       -0.4853430632635980        0.1974817070567338        0.3116552922920345
N       -1.0087244026536799       -1.4539600595425570        1.2687338887745743        0.0918298459672651
N       -1.3782069468309313       -0.7092129522467016        0.4346362487921188        0.5593901217632046
O       -1.0593749835301174       -0.5713427862508343        0.3549321926401239       -0.9963138680841535
N        0.8440737850047628        0.8396655317769837       -0.0098279152161899        0.9989733053171830
O        0.8309801842915454        0.9390401283477022       -0.0207747514763523       -0.8354521971080898
N        0.7850703429780150        1.7098333917909965        0.1054048166301709        0.2899344186932475
O        0.7383058938357677        1.3248148731120968        0.1127177981156628       -0.8678253524624289
N        0.4574679272792887       -0.4117597632492563        0.0379310270319581        0.9219570073558310
O        0.5667418333807235       -0.2519711367154695       -0.1461871714248697       -0.9704818863270434
O        0.8262450502145789       -0.3090537383095904        0.4742073598064807       -0.3320651923316272
N        0.6565496763404391        0.3155162190394187        0.0854544132785354        0.9769593393400061
O        1.2434224710329203       -0.6654600740276473       -0.6786312155109790       -0.1970026432733326
O        1.5132118958894094       -0.6910419297158176        0.2889840998883028       -0.1946060569702309
N        2.6606998719138790       -0.3312491847074385       -0.5076257481460253        0.1283355164991325
N        1.3551122685690264       -2.0610231136191448       -0.2601100830317070        0.1235072004109040

        RMSE         7.073163690E-01 kcal/mol

Coordinates in bohr
s                   x[bohr]                   y[bohr]                   z[bohr]                      q[e]
+       -3.3210348818299731        1.9960777707090545       -2.4396663096868649        0.0707249461841811
-       -3.1375825986159125        0.2727215176021206        0.0292900318147907       -0.3496602100029151
+       -2.6871541682485089       -0.0043880417027253       -0.8539771976941877        0.9824851761690530
+       -5.8275258923561841       -0.8653030366108667       -0.0805829171244572        0.1071394941056757
-       -2.7584561420669393       -0.3460172616898308       -0.9380165890401836       -0.8194842575378962
+       -1.1305425348947005       -0.9171654664589526        0.3731863411251194        0.3116552922920345
+       -1.9062128570815007       -2.7475863098897895        2.3975595758710195        0.0918298459672651
+       -2.6044336737138787       -1.3402182443736670        0.8213434744134553        0.5593901217632046
-       -2.0019285830333193       -1.0796813897700692        0.6707246371980728       -0.9963138680841535
+        1.5950682833375742        1.5867378920454063       -0.0185720681428185        0.9989733053171830
-        1.5703249639934942        1.7745286633919251       -0.0392585906147566       -0.8354521971080898
+        1.4835679374476927        3.2311168306476166        0.1991862357351258        0.2899344186932475
-        1.3951959361609441        2.5035372771150270        0.2130057679032492       -0.8678253524624289
+        0.8644890937387137       -0.7781131820244498        0.0716792527477384        0.9219570073558310
-        1.0709868489294205       -0.4761564399125289       -0.2762537170483583       -0.9704818863270434
-        1.5613768574207050       -0.5840269234540397        0.8961220367106870       -0.3320651923316272
+        1.2406990760414092        0.5962392421244641        0.1614854373081187        0.9769593393400061
-        2.3497279284922388       -1.2575372873391455       -1.2824271375022989       -0.1970026432733326
-        2.8595560530157882       -1.3058799883707728        0.5461008034008404       -0.1946060569702309
+        5.0279940599579547       -0.6259702383782523       -0.9592736382266198        0.1283355164991325
+        2.5607910568433141       -3.8947692229785353       -0.4915368194000215        0.1235072004109040
