21
s                      x[A]                      y[A]                      z[A]                      q[e]
N       -2.1051597193684444        1.6056475539478299       -0.2618089317947758        0.0690680479201058
O       -1.8684236918448562       -0.1877162355343363        0.3810845209952229       -0.3117950550350966
N       -1.9855198065530424       -0.3205970935006714        0.0685288416274458        0.5776243102962968
N       -3.3231699456797972       -0.5327129167597727        0.0498056025656261        0.0604184539076988
O       -1.8450411075217723       -0.3211024988953545       -0.2753673852395417       -0.3968494342195521
O       -0.9389243011173112       -0.0847156428873600        0.1086576962937549       -0.9828651838991298
N       -0.7580890504017137        0.0592108915048830        0.1257285354161183        0.7759263489545838
N       -1.0613182290266636       -1.2577959255677187        0.1047016382997543        0.9970342621901004
O       -1.0946184699239894       -1.3219256307957827       -0.2207996958092069       -0.3970377457969525
O       -1.0730744986663299       -1.3288631461605902        0.4747825737823970       -0.3893757401670396
N        1.7381325693220226       -1.3154552549690688       -0.1066818869109580        0.1691966627363242
O        1.4052739386709348       -0.9742846120479481       -0.0736627479734810       -0.6800109224217911
O        0.3789094667204788        0.4237310881724929       -0.3431716123328258       -0.9821368279659007
N        0.2508982684586352        0.4928973781204352       -0.2109704039786812        0.8921713087406896
O        0.5971821506213794        0.4938981634828430        0.3176444684769738       -0.3335771210350215
N        0.7939881039550352       -0.1339916895159012       -0.0668973228991006        0.9988617281482304
N        2.3568151207333008        1.6024639225902746       -0.0448314852463034        0.0655379221577991
N        1.1332352992475749        1.0368450748054159        0.0024796417984691        0.9908754307264420
O        0.9908739197352642        1.0625057037787122       -0.3500622964674237       -0.6595771554465193
O        1.0699662097980387        1.1205042799298461        0.3549177803337301       -0.5578053818499882
N       -0.0528467308150609        2.2782441229981751       -0.0344095875857910        0.0943160920587207

        RMSE         6.130273894E+00 kcal/mol

Coordinates in bohr
s                   x[bohr]                   y[bohr]                   z[bohr]                      q[e]
+       -3.9781753199520193        3.0342341309726715       -0.4947471782907945        0.0690680479201058
-       -3.5308090639035914       -0.3547322744618304        0.7201453753322550       -0.3117950550350966
+       -3.7520886510572571       -0.6058407033340649        0.1295007423707462        0.5776243102962968
+       -6.2798810656873840       -1.0066815161697837        0.0941189483624330        0.0604184539076988
-       -3.4866223834275387       -0.6067957811123449       -0.5203689419861722       -0.3968494342195521
-       -1.7743097816486155       -0.1600893635991998        0.2053332874183708       -0.9828651838991298
+       -1.4325806839676347        0.1118923685884265        0.2375924980913886        0.7759263489545838
+       -2.0056007848163211       -2.3768898210397280        0.1978574212732817        0.9970342621901004
-       -2.0685291200240368       -2.4980774004271100       -0.4172509536637996       -0.3970377457969525
-       -2.0278169146923251       -2.5111874044577518        0.8972090335887045       -0.3893757401670396
+        3.2845945257569658       -2.4858501621858378       -0.2015995488087749        0.1691966627363242
-        2.6555828753314872       -1.8411310850185523       -0.1392024193185027       -0.6800109224217911
-        0.7160351184449822        0.8007357074882344       -0.6485003613408267       -0.9821368279659007
+        0.4741290127384147        0.9314410526038520       -0.3986762840969059        0.8921713087406896
-        1.1285107116863125        0.9333322628491699        0.6002610506881030       -0.3335771210350215
+        1.5004200633465559       -0.2532075962724323       -0.1264176188056186        0.9988617281482304
+        4.4537351065237640        3.0282179396224729       -0.0847192289130166        0.0655379221577991
+        2.1415043512791621        1.9593532259120707        0.0046858438883444        0.9908754307264420
-        1.8724803331585318        2.0078447868785889       -0.6615218671722541       -0.6595771554465193
-        2.0219431000124453        2.1174462114707420        0.6706974018861522       -0.5578053818499882
+       -0.0998658478662579        4.3052574394004095       -0.0650246966270986        0.0943160920587207
