21
s                      x[A]                      y[A]                      z[A]                      q[e]
N       -1.7841718748909841        0.9798361796516076       -1.4664897469974385        0.0707249461841811
O       -1.6829553162666329        0.3384480335827127       -0.0272456579397436       -0.3496602100029151
N       -1.4681111369944329        0.0972019733183291       -0.4314602945127393        0.9824851761690530
N       -3.1341494658887150       -0.1652508121113925        0.1078704861807555        0.1071394941056757
O       -1.5221527095714680       -0.0840505175278952       -0.4773574731408647       -0.8194842575378962
N       -0.6169043868428133       -0.1128870563711258        0.4876297506837672        0.3116552922920345
N       -1.0380132957858292       -1.0443937685651563        1.4953648341852881        0.0918298459672651
N       -1.4334235473328985       -0.2867031097334929        0.6138705252050219        0.5593901217632046
O       -1.0887483133620965       -0.2207629564196114        0.5424382745803106       -0.9963138680841535
N        1.1680774717823761       -0.6347892387574804       -0.0817300591255668        0.9989733053171830
O        1.2074928111217795       -0.7163235290100022       -0.0872983601960332       -0.8354521971080898
N        1.4300154609908613       -1.4463725703873809       -0.2821397517267524        0.2899344186932475
O        1.2367777073343615       -1.1109595801699936       -0.2239832670451361       -0.8678253524624289
N        0.3276913039161364        0.3172516307309611        0.2008825086372847        0.9219570073558310
O        0.5538632267132155        0.2539477588463057        0.2991778118283171       -0.9704818863270434
O        0.4803600153728986        0.3806549501503739       -0.3572373010453502       -0.3320651923316272
N        0.7631162753429430       -0.2509619830880785       -0.0202112404194027        0.9769593393400061
O        1.1557050182148461        0.9408719855004138        0.5528416297543549       -0.1970026432733326
O        0.9368547588515874        1.0338990308550813       -0.4227339475942333       -0.1946060569702309
N        2.3553698238687386        1.2500615638278672       -0.2359559929415422        0.1283355164991325
N        0.4886543989766632        2.2106944150386849        0.3458210493947451        0.1235072004109040

        RMSE         5.950666650E-01 kcal/mol

Coordinates in bohr
s                   x[bohr]                   y[bohr]                   z[bohr]                      q[e]
+       -3.3715962042885681        1.8516220273564330       -2.7712639876171004        0.0707249461841811
-       -3.1803246291271980        0.6395740911710807       -0.0514868316140210       -0.3496602100029151
+       -2.7743279706539763        0.1836851084257013       -0.8153417906384522        0.9824851761690530
+       -5.9226841267796031       -0.3122787769000214        0.2038456759016112        0.1071394941056757
-       -2.8764517422136251       -0.1588324588307147       -0.9020748881768255       -0.8194842575378962
+       -1.1657803367264068       -0.2133256196505470        0.9214866794176022        0.3116552922920345
+       -1.9615608436190655       -1.9736181897229326        2.8258299942508520        0.0918298459672651
+       -2.7087779262414138       -0.5417903567133842        1.1600471691284482        0.5593901217632046
-       -2.0574361318085002       -0.4171815262794477        1.0250597789226799       -0.9963138680841535
+        2.2073465149858853       -1.1995778086394977       -0.1544474279647965        0.9989733053171830
-        2.2818307114793415       -1.3536552870503495       -0.1649699919720716       -0.8354521971080898
+        2.7023375764430502       -2.7332480334066251       -0.5331668598682294        0.2899344186932475
-        2.3371711449335786       -2.0994093429748975       -0.4232670314005910       -0.8678253524624289
+        0.6192468180956641        0.5995186949363969        0.3796129247193847        0.9219570073558310
-        1.0466498094503354        0.4798917143933282        0.5653641271692769       -0.9704818863270434
-        0.9077488706754904        0.7193336040840087       -0.6750806607734413       -0.3320651923316272
+        1.4420807622776288       -0.4742494159382477       -0.0381937090484545        0.9769593393400061
-        2.1839659662433100        1.7779903717115109        1.0447192709874882       -0.1970026432733326
-        1.7703989135613383        1.9537860096923763       -0.7988513848867430       -0.1946060569702309
+        4.4510038912797585        2.3622739955961891       -0.4458922043199752        0.1283355164991325
+        0.9234229840660935        4.1776069915023140        0.6535070717744917        0.1235072004109040
