21
s                      x[A]                      y[A]                      z[A]                      q[e]
N -1.7840734015187338 0.9801463567850400 -1.4665671822284079 0.0707249461841811
O -1.6828490820118169 0.3378952652089987 -0.0269314181959041 -0.3496602100029151
N -1.4681553799092069 0.0978583269575753 -0.4318904455009508 0.9824851761690530
N -3.1342304712638329 -0.1649379268709441 0.1079035063677935 0.1071394941056757
O -1.5222726835222335 -0.0847071800484667 -0.4771465360965776 -0.8194842575378962
N -0.6170076340276447 -0.1125718227855238 0.4870949286231070 0.3116552922920345
N -1.0380511385440025 -1.0442413307926710 1.4951117637967042 0.0918298459672651
N -1.4336402780133897 -0.2862048705631518 0.6134691448490713 0.5593901217632046
O -1.0886490204629837 -0.2212593380402183 0.5430558268761490 -0.9963138680841535
N 1.1683466575768537 -0.6349684612454406 -0.0822297461471141 0.9989733053171830
O 1.2075423073424800 -0.7162906591825231 -0.0868360510057892 -0.8354521971080898
N 1.4302068218741570 -1.4465914876426860 -0.2824515781581700 0.2899344186932475
O 1.2367635284339242 -1.1109484023753482 -0.2236014246585686 -0.8678253524624289
N 0.3275976123830961 0.3174396603555191 0.2002044055454317 0.9219570073558310
O 0.5540329672388400 0.2538621821841122 0.2999293875500382 -0.9704818863270434
O 0.4805196237949201 0.3805021453406280 -0.3567247878692092 -0.3320651923316272
N 0.7632487502941787 -0.2509661609701355 -0.0208212487970308 0.9769593393400061
O 1.1558409689130487 0.9409238127783730 0.5533572022323853 -0.1970026432733326
O 0.9370870232824073 1.0338534409108622 -0.4223022044002522 -0.1946060569702309
N 2.3552954693659287 1.2499833870674191 -0.2362323089440847 0.1283355164991325
N 0.4883622290423312 2.2107274568574629 0.3454052021442948 0.1235072004109040
