21
s                      x[A]                      y[A]                      z[A]                      q[e]
N -0.0019072611951478 -1.1566078576067316 -0.4358051560973908 0.0707249461841811
O -0.2315016430149423 0.1883488580886298 0.6191778747219741 -0.3496602100029151
N 0.2417665703244223 0.0039368090319987 0.4154586105029625 0.9824851761690530
N 0.2806372615759136 0.3763039240304903 -0.2128216852760211 0.1071394941056757
O 0.2217270036914511 -0.1698897154547022 0.3438060869697881 -0.8194842575378962
N -0.4578061158917776 -0.3673821369113988 0.4214343649371866 0.3116552922920345
N 0.1021055923203641 -1.4637203222409041 -0.1737293258581839 0.0918298459672651
N -0.6114608668937148 -0.4475762431324333 -0.4060251048514557 0.5593901217632046
O -0.4987989316998244 -0.4047787233564317 -0.0724512322404228 -0.9963138680841535
N 0.3450382303821193 0.1957175901303459 -0.3199857100858960 0.9989733053171830
O 0.2498301166133890 0.2296840477608315 -0.3325817638620927 -0.8354521971080898
N 0.1324035403739849 0.2789106117765744 0.4084572736533504 0.2899344186932475
O -0.1414626988918959 0.2181508808857322 -0.4810822512321132 -0.8678253524624289
N -0.2047638639992114 -0.0897128877420967 0.4079710891926073 0.9219570073558310
O 0.0168920709444430 -0.2302336350924964 0.3635217428110533 -0.9704818863270434
O 0.0084922794361148 0.4437960141352160 0.3307346830344743 -0.3320651923316272
N 0.2880851288769825 -0.0525705207292606 -0.1635703039617301 0.9769593393400061
O 0.5584177014307807 -0.2646560366768060 -0.2034594970066239 -0.1970026432733326
O 0.4205088732877484 0.7059846846490307 -0.4234219226656600 -0.1946060569702309
N 1.3687504216711328 -0.4669164169868388 0.4641525846425856 0.1283355164991325
N -0.1714628266593590 0.3655111220497168 0.8945987997819057 0.1235072004109040
