25
s                      x[A]                      y[A]                      z[A]                      q[e]
N 0.1012366631873844 -0.0350449110442116 0.1948835165199646 0.1158659338886357
O -0.2103744583020928 0.4735142867065995 0.3469309941465444 -0.2341991647481463
N -0.0963911766230366 -0.0171354305833804 -0.4076845547882716 0.0569852111266852
N -0.4721425377945846 -0.0413082289858706 0.1574685037497440 0.3189271149812888
O -0.2036593407324840 -0.3427108651455367 0.2577925254634870 -0.2877498234141676
N -0.0259897263243413 0.0831708688577356 -0.4863622296186236 0.5692545008206258
O -0.0979485658956847 -0.4176017672197598 0.0426734533406841 -0.2058946535748549
O -0.0052306739740466 0.1226695888266188 -0.1734474356380925 -0.9992971180892700
N -0.1674474217891206 -0.0520554216288460 0.2901268758951427 0.6691943173322236
N 0.0326248165647482 -0.1031757707821326 0.4869651258083738 0.0628076875181509
N 0.0089296932278147 0.0009306669076447 0.0175814869865490 0.7576134719858190
O -0.0235042956666759 -0.0431317403429396 -0.2341212372169001 -0.9235083265987739
N 0.0378224947371336 -0.0092868708809091 -0.6718080535706237 0.9955526175656415
O -0.0015565520809139 0.0265252958598584 -0.1258419119430783 -0.9936641819349231
O -0.0864926425900848 0.0747932871429787 -0.1436936281057786 -0.9934394819660318
N -0.0747874663314786 -0.0474814487020159 0.2158069161317283 0.8475065253219278
N -0.1214647962357782 0.0103233740884440 -0.3859026876535645 0.9207393412409772
O 0.1239753563314681 -0.1892188945284129 -0.2366139328298140 -0.6738758902636315
N -0.0357671074199328 0.0144120069949255 0.2309131330770724 0.1207489421105395
N 0.3025158290675925 0.0553938782184796 -0.5207658175129823 0.4308753055723465
O 0.3850376782111453 -0.1556975209758873 -0.1905333158199873 -0.7095764258838037
N 0.5111494967617406 -0.0111792281937231 -0.0195859112756340 0.9977500474782615
O 0.3617459164445188 0.0986205326598483 -0.1393632603424370 -0.9963537733476465
O -0.0220978839688498 -0.3376031483836431 -0.0260347899185218 -0.1586318904925156
N -0.0085014823046292 -0.1682858862509066 -0.0436447767173665 0.3123697133706422
