8
s                      x[A]                      y[A]                      z[A]                      q[e]
C 1.7220123951160975 0.1196199962980506 0.2629040389733373
C 0.5788907635836038 -0.4458243050769672 -0.1458075242980311
C -0.6636112254729264 0.3448089206761317 -0.2450941406066137
O -1.7712433744324627 -0.0893592813779785 0.0885062511834384
H -0.5528782753467281 1.3983459565793694 -0.5528554303136246
H 2.6140724134828579 -0.4662467390616320 0.4551233392721622
H 1.8011793166179877 1.1929905537648042 0.4215443838296224
H 0.4838224144781759 -1.5218421438289811 -0.2638754519132918
