23
s                      x[A]                      y[A]                      z[A]                      q[e]
N -1.8158878865295380 1.3862085493495413 -0.2771616221434990 0.2856065124296451
O -1.7486288962329533 1.1952376696039519 -0.2271488628371067 -0.2980193526493612
N -2.6638507209430053 -0.4115640410896010 -0.3265762191766441 0.9235469647741466
O -2.5805768689286026 -0.3587141138810367 -0.3246435173782357 -0.9987019282037162
O -1.5036497016127206 -0.0259097341560234 -0.0805255464589869 -0.9994297377915048
N -1.6659537819114132 -0.4040922987488061 -0.0809750822219724 0.3910255639585828
N -2.0387592270524721 0.1153320165529173 -0.2486535910039593 0.3788084070601841
N -1.2850179472413337 0.4889298971223320 -0.0594811120540948 0.3521750120262308
N -1.0987958915046370 -0.5875083628174389 0.2529353796805763 0.5091785922378865
N -0.6671500648351937 -0.0398306076201821 0.3807460355524985 0.9946620798872232
O -0.8233341180621365 -0.0825945038831749 0.3207630922931901 -0.5088390984708862
O -0.8422467505440157 -0.3444190621038092 0.2719970964014652 -0.9513197152299744
N -0.6521527961695869 -1.8246067211052472 0.2624746194803356 0.0534150746794947
N -0.2255059403432081 -1.7791489154266464 0.4064614291873950 0.0449830180293293
O -0.7670110540336792 -0.2021863672976885 0.6666286972163940 -0.1594766348608674
O 0.4276876940639972 1.3479183502643473 0.2650291072878014 -0.2085098172073890
N 0.5412750705569390 1.2377083500763684 0.5504437392148078 0.7433887315217406
O 0.5423304142461940 1.1943891982357322 0.7105951301419550 -0.4563903046399361
N 0.6407626306051895 -0.1813456100196775 -0.0357457029686884 0.2740207269363132
N 1.3580655113447642 0.0790206201896064 -0.0045392013539987 0.2947455612059413
O 1.7612838007789589 -0.4519909267581834 -0.3518378681027727 -0.8294346811293033
N 1.9343847396768916 -0.2725093334832109 -0.3250212486514373 0.8271270632704910
O 2.0225366962315907 0.0480932175094379 -0.2089597067348273 -0.6625620378342709
