25
s                      x[A]                      y[A]                      z[A]                      q[e]
N -1.9043128376132947 1.2718192214995245 0.3678307807533231 0.1158659338886357
O -1.7337295755977742 -0.4068314433721742 0.4621588253982725 -0.2341991647481463
N -3.2861139995345625 -0.6593185512176033 0.0867846706148282 0.0569852111266852
N -2.0917466098590958 -0.5225117391831434 -0.0033435987956741 0.3189271149812888
O -1.8678079833089116 -0.3033143957218483 -0.2964932864618010 -0.2877498234141676
N -1.2806977130944182 -0.9425805959299336 -0.2637456032805844 0.5692545008206258
O -0.8608610987512287 -0.5174893693504523 0.3666893364784897 -0.2058946535748549
O -1.0712421666290362 -0.7231278607627483 -0.2994079248721552 -0.9992971180892700
N -0.6587364535062512 -0.4118068017580077 -0.0985534535999140 0.6691943173322236
N -0.7928126504659462 -2.1211026594105502 -0.4148170712722525 0.0628076875181509
N 0.5468751436334067 1.6098874013177376 -0.0633572229123839 0.7576134719858190
O 0.5257234543321363 1.2643268539829029 0.0124180094182254 -0.9235083265987739
N 0.6067530973528080 0.8505857139746615 -0.0414855165116585 0.9955526175656415
O 0.5620321965814326 1.4134652040812445 -0.1079797376934972 -0.9936641819349231
O 0.4841113914056460 -0.1999776940228541 -0.1658538436816582 -0.9934394819660318
N 0.4847832545559029 0.2179711336156077 -0.0031055742213730 0.8475065253219278
N 0.4490401218843993 -0.4785659750251747 -0.0723043334044309 0.9207393412409772
O 0.6639302600173884 -0.2986582461492170 0.2091038421021077 -0.6738758902636315
N 2.8330298074857985 -0.0560069715484810 0.2255853289712784 0.1207489421105395
N 1.1383725606418604 -0.7125929146486899 0.1119015990906536 0.4308753055723465
O 1.4271127276713682 -0.4543339430121173 -0.1458770807000964 -0.7095764258838037
N 1.5476682047544070 -0.2493018294919090 0.0635600503347501 0.9977500474782615
O 1.4892404718756076 -0.4384648190648549 0.1923660461803355 -0.9963537733476465
O 1.8344176361224482 -1.9028917600261266 -0.2333095838136156 -0.1586318904925156
N 1.8081058816254789 -1.8549178417849252 -0.0681025046117273 0.3123697133706422
