25
s                      x[A]                      y[A]                      z[A]                      q[e]
N 0.0665360876881927 -0.0065452827709292 0.2409794119765325 0.1158659338886357
O -0.1735201551987358 0.4363980773111348 0.3090903639202835 -0.2341991647481463
N -0.0860747898690935 -0.0060206981392964 -0.3902768245318287 0.0569852111266852
N -0.5053130184777123 -0.0320618671064499 0.1396518472127807 0.3189271149812888
O -0.2360516980734350 -0.3376528101092461 0.2747267897788488 -0.2877498234141676
N 0.0366618166467884 0.1141134105895571 -0.5463640886024860 0.5692545008206258
O -0.1589890718647119 -0.4938138209753757 0.0423283250342827 -0.2058946535748549
O -0.0777773769420673 0.1603857215511530 -0.2669620945011966 -0.9992971180892700
N -0.1852718906657982 -0.0184230291922489 0.2467466205754554 0.6691943173322236
N 0.0189514365158979 -0.0232949459008383 0.3802952952320030 0.0628076875181509
N 0.0494956622811360 0.0034272119952596 0.2784461860376610 0.7576134719858190
O 0.0274917728683648 -0.0714165081636642 -0.0672641234309590 -0.9235083265987739
N 0.0990802622735790 -0.0105691826964603 -0.4817828989517043 0.9955526175656415
O 0.0591272316314322 0.0499852851918258 0.0821246045985708 -0.9936641819349231
O -0.0462520629401244 0.1127200144300638 -0.1198238796556115 -0.9934394819660318
N -0.0300192187533976 -0.0521572926100990 0.2969742027890758 0.8475065253219278
N -0.0801305946939848 0.0189470892067716 -0.3984846388450575 0.9207393412409772
O 0.1531209860478917 -0.2507891021205766 -0.2236383898499157 -0.6738758902636315
N -0.0655400002096331 0.0220223025289392 0.2174449560941278 0.1207489421105395
N 0.2651419214799868 0.0741240187345778 -0.4904819801749137 0.4308753055723465
O 0.3536007512479270 -0.2072557034705338 -0.1305946150041830 -0.7095764258838037
N 0.4501321099319415 -0.0074918682287506 0.0957056488169226 0.9977500474782615
O 0.3101285993276245 0.1228030156043149 -0.0428933462180292 -0.9963537733476465
O -0.0321840182406957 -0.3672236862978318 -0.1337263540516746 -0.1586318904925156
N -0.0259110463139910 -0.1992025102924676 -0.0888184648614393 0.3123697133706422
