21
s                      x[A]                      y[A]                      z[A]                      q[e]
N -1.8794693325552980 0.7659502210525696 -1.8100100337989296 0.0690680479201058
O -1.9356587695518002 0.3510980405314169 0.0870241588741789 -0.3117950550350966
N -2.0382633339083562 -0.0059302203865213 -0.0048136666059568 0.5776243102962968
N -3.3934777984708289 -0.0531921767236719 -0.0215316263501405 0.0604184539076988
O -1.8674980904825955 -0.2645577271393700 -0.1749105981784717 -0.3968494342195521
O -0.7875295880726781 -0.6291111509588013 0.3346571526320666 -0.9828651838991298
N -0.5793799139036927 -0.6774712854134683 0.2737951944915685 0.7759263489545838
N -1.2270611817095145 -0.4345425030725292 1.0635334043674005 0.9970342621901004
O -1.2074045221070757 -0.6910222161700328 0.9511629376611501 -0.3970377457969525
O -1.2972903184242111 -0.1995738357697471 1.1860726208517287 -0.3893757401670396
N 1.0644949181350873 1.6858367588277738 0.2171913231545047 0.1691966627363242
O 0.9214564437088213 1.2638329486291320 0.1615732030547609 -0.6800109224217911
O 0.6834039107852381 -0.4457809365501797 0.3390906359479713 -0.9821368279659007
N 0.5548660431469201 -0.5906267599771299 0.2425637318374181 0.8921713087406896
O 0.6822576398933194 -0.3867535575238162 -0.3594157016535260 -0.3335771210350215
N 0.7109191891017319 0.2177609649259973 0.0870291435812285 0.9988617281482304
N 2.7726736370867409 -0.6268480306670199 -0.6655013215713040 0.0655379221577991
N 1.4850300256582099 -0.6930129493819680 -0.2917631096826895 0.9908754307264420
O 1.4655709129678873 -0.7544150570128052 0.0796217063758497 -0.6595771554465193
O 1.3335057283299585 -0.7316619501480983 -0.6298825159587115 -0.5578053818499882
N 0.9737409062849021 -2.3116093058511828 -0.1862218286739455 0.0943160920587207
