21
s                      x[A]                      y[A]                      z[A]                      q[e]
N 1.6998495498534547 0.5849104444716259 -1.6409067460201729 0.0707249461841811
O 1.5933118738025724 -0.3096164483507706 -0.3642280839302908 -0.3496602100029151
N 1.4587311432545484 0.1870123475447044 -0.3074181290569057 0.9824851761690530
N 3.1067395825191255 -0.3309632084913007 0.0270390366744190 0.1071394941056757
O 1.5448853062690802 0.2982516338459955 -0.1778381906368675 -0.8194842575378962
N 0.5784735971049686 -0.3748225316028290 0.5008990875318498 0.3116552922920345
N 1.0835929785989356 -0.9554508117807801 1.6255409681528779 0.0918298459672651
N 1.4025572357506251 -0.5150633395258379 0.6168043350801438 0.5593901217632046
O 1.0569587009174655 -0.4463713932594761 0.5485927969039552 -0.9963138680841535
N -0.9356530571724616 0.8092963529073165 0.1084941288566377 0.9989733053171830
O -0.9475898441442785 0.9009560648409816 0.1172788513729937 -0.8354521971080898
N -0.9180586823335348 1.6841731314255373 0.0607146916676236 0.2899344186932475
O -0.8457272639137581 1.3013719737805522 0.0514584613538603 -0.8678253524624289
N -0.4539210690684783 -0.3947347181034924 0.1878066845007474 0.9219570073558310
O -0.6490587572728657 -0.2787996436292624 0.3022870458201735 -0.9704818863270434
O -0.6119152088007340 -0.3056021661744691 -0.3683372904486873 -0.3320651923316272
N -0.6782327473976100 0.3123905197132072 0.0860173616889268 0.9769593393400061
O -1.4484635770701986 -0.8001188955945366 0.3292173293672641 -0.1970026432733326
O -1.1967505556246070 -0.7149824706275865 -0.6391254293233549 -0.1946060569702309
N -2.6253321795724207 -0.5260048442698133 -0.5037911269744854 0.1283355164991325
N -1.1804808938111997 -2.1250434497122370 -0.1973134539516047 0.1235072004109040
