21
s                      x[A]                      y[A]                      z[A]                      q[e]
N -1.8505004747531100 1.5427891858813700 0.1953241919464658 0.0707249461841811
O -1.6342331622777380 -0.0298693241776801 0.2880896386415958 -0.3496602100029151
N -1.4910267202547880 0.2322414089545795 -0.1132880040945207 0.9824851761690530
N -3.0865851517492167 -0.4838187035917436 -0.0427284166771703 0.1071394941056757
O -1.5373460501758922 0.1430458913017175 -0.3204281663762877 -0.8194842575378962
N -0.5510501898047314 -0.6482034465027873 -0.1363560415284651 0.3116552922920345
N -0.8919613557958963 -1.9845105095355107 -0.1735092127698703 0.0918298459672651
N -1.3214827228969961 -0.9415547334990805 -0.1161885205556731 0.5593901217632046
O -1.0096023736284803 -0.7726774608068981 -0.1188309318654338 -0.9963138680841535
N 0.7916470484270448 0.7627576665974924 -0.0662105833567326 0.9989733053171830
O 0.7722961726981318 0.8623171084181533 -0.0757198890610684 -0.8354521971080898
N 0.6450030088492329 1.6352633115707238 0.0591536105060605 0.2899344186932475
O 0.6226993378632184 1.2486371160338035 0.0489579950204250 -0.8678253524624289
N 0.4768075915633707 -0.5025823765405062 -0.1190041868086865 0.9219570073558310
O 0.6024320297312955 -0.3295340868336388 -0.2775159159959272 -0.9704818863270434
O 0.7611661504633224 -0.3967573672092670 0.3749762489495067 -0.3320651923316272
N 0.6226742759578021 0.2319076192276572 -0.0180754704022325 0.9769593393400061
O 1.4713340803997168 -0.3699959121474695 -0.6436978714488146 -0.1970026432733326
O 1.4706706548122890 -0.7289298883391804 0.4028766449357211 -0.1946060569702309
N 2.7643845396810423 -0.0944914846542652 0.0101456785139772 0.1283355164991325
N 1.5668246431760295 -1.8282307139715224 -0.6447330229138388 0.1235072004109040
