25
s                      x[A]                      y[A]                      z[A]                      q[e]
N 1.4487345424309355 0.0037430733085303 -0.0784667974780826 0.1158659338886357
O 0.2467114386778427 -0.4393712209210846 0.2293073824046788 -0.2341991647481463
N -0.8529064397828848 -0.0061972765266515 0.2335283056668672 0.0569852111266852
N -0.1006458730536905 0.0320995342411625 0.3769811979759310 0.3189271149812888
O 0.1798441900462582 0.3397075734600932 0.2599033502885854 -0.2877498234141676
N -0.0272887231238095 0.1141076219805690 -0.5385577564742144 0.5692545008206258
O 0.2917899291625156 0.4964590213139314 -0.4677978419924346 -0.2058946535748549
O 0.2746150689560841 0.1681456024986033 -0.5813432199424299 -0.9992971180892700
N 0.1192212493621840 0.0193937074833149 -0.3612320444778831 0.6691943173322236
N 1.0580725468080221 0.0206904468273764 -0.3501722185611919 0.0628076875181509
N -1.0174468123932026 -0.0033839159895686 0.3263618991207110 0.7576134719858190
O -0.9908413227643568 0.0738609058538829 -0.0277867882419860 -0.9235083265987739
N -1.1068961098226433 0.0116219905074649 -0.4407847573830147 0.9955526175656415
O -1.0135189105703410 -0.0530548559112549 0.1271054949133668 -0.9936641819349231
O -0.3174897030566431 -0.1177358165858851 0.5007795528179009 -0.9934394819660318
N -0.6997403973304059 0.0542600066124466 0.6675228490551575 0.8475065253219278
N -0.0496103553622574 -0.0182618892519150 0.3977394860951805 0.9207393412409772
O -0.3158280889354053 0.2552247980542883 0.2753271718882268 -0.6738758902636315
N -0.4472308993121443 0.0227266597476899 0.3090288927933454 0.1207489421105395
N -0.1510013656539342 0.0765313179392049 -0.3354529130687726 0.4308753055723465
O 0.2423662731131053 -0.4860301274223524 -0.4508149371647179 -0.7095764258838037
N 0.0264077789681526 0.0087299339233996 0.4332768650652196 0.9977500474782615
O -0.1278490560884341 -0.1268559483041171 0.5767974809644518 -0.9963537733476465
O -1.0541859182940356 0.3703680970704110 0.0831061151624040 -0.1586318904925156
N -1.0463028820337819 0.2020543715989522 0.0342740156790346 0.3123697133706422
