23
s                      x[A]                      y[A]                      z[A]                      q[e]
N 1.5661900202426606 1.5152028748305784 -0.5708011720466202 0.2856065124296451
O 1.5368334658116181 1.2672293718452234 -0.5404298806775837 -0.2980193526493612
N 2.6022125083938068 -0.1719893343352649 -0.5836721236489736 0.9235469647741466
O 2.5179072456174847 -0.1196550811602100 -0.5528285147655760 -0.9987019282037162
O 1.4780906980728274 0.0952590871477865 -0.2255259151327906 -0.9994297377915048
N 1.6505707770267732 -0.2836122092370298 -0.2346157231814083 0.3910255639585828
N 1.9646810165886630 0.2866238737752271 -0.4273863730739406 0.3788084070601841
N 1.1626380919895785 0.5772532649751794 -0.2422018074528415 0.3521750120262308
N 1.1660458226236925 -0.5087211638542973 0.1978077325639959 0.5091785922378865
N 0.6824224053448189 -0.0619833783613294 0.4314568372908105 0.9946620798872232
O 0.8338683983972078 -0.1511714728797764 0.4550533144168039 -0.5088390984708862
O 0.8787215689283583 -0.3390512200786115 0.2642529935011398 -0.9513197152299744
N 0.8717628546404139 -1.7945353782365931 0.2527279301981953 0.0534150746794947
N 0.4417364426634233 -1.7973289301566797 0.3872113779940526 0.0449830180293293
O 0.9168480984574574 0.0826774434912847 0.1914423426196284 -0.1594766348608674
O -0.5741701762101403 0.9219249258568867 1.1470079648790186 -0.2085098172073890
N -0.6119969034800870 1.0505676351169069 0.8604470146058365 0.7433887315217406
O -0.5463934257610732 1.1436441065028897 0.7357528041575814 -0.4563903046399361
N -0.6269042156161606 -0.2371549173505197 0.0926240933067497 0.2740207269363132
N -1.3234581601471431 0.0386686690730856 0.0493081883460736 0.2947455612059413
O -1.6771047475264809 -0.4544112216636663 -0.3516143085120218 -0.8294346811293033
N -1.8679560514270499 -0.3130504852363211 -0.2745442524963431 0.8271270632704910
O -1.9847476582584977 -0.0400498068577746 -0.1004128822426841 -0.6625620378342709
