25
s                      x[A]                      y[A]                      z[A]                      q[e]
N       -1.6970379009964249        0.2981286758185187       -1.6346766433318669        0.1158659338886357
O       -1.8488084666524804        0.4898104182398054        0.0452391526163270       -0.2341991647481463
N       -3.3763577234886029        0.0298032254162746        0.0511080563300687        0.0569852111266852
N       -2.1708911228659313       -0.0021074569545517        0.1353241575992683        0.3189271149812888
O       -1.8792235579122771       -0.2899053910901328       -0.0503326381119624       -0.2877498234141676
N       -1.4258426833558882        0.0263753910540828        0.7843280002342887        0.5692545008206258
O       -1.0243246161009527       -0.1207304150388795        0.0130927496309989       -0.2058946535748549
O       -1.1348769044364924       -0.0517962424949931        0.7385587702406530       -0.9992971180892700
N       -0.6979350435825802       -0.1624234426452082        0.4197360577249784        0.6691943173322236
N       -1.1444964814577667       -0.2377778568882011        1.9407670932331929        0.0628076875181509
N        1.1821072602582905       -1.4736842369003997       -0.1614432576423070        0.7576134719858190
O        1.0101524944634817       -1.1609676741669948       -0.1906515211396976       -0.9235083265987739
N        0.9294379642047732       -0.7490156348995807       -0.0815407430411351        0.9955526175656415
O        1.1338287900527109       -1.2909105627005959       -0.0991029919809160       -0.9936641819349231
O        0.4348388595635255        0.1681737985158871        0.2155410709543863       -0.9934394819660318
N        0.5563740956082756       -0.2126511473814282        0.0004878530499206        0.8475065253219278
N        0.2696623711294864        0.4024784960494555        0.1780285150932505        0.9207393412409772
O        0.4622220164537450        0.3493691060422335       -0.1754073295428880       -0.6738758902636315
N        2.5501633867221010        1.0135807720634549       -0.4225226811721268        0.1207489421105395
N        0.7786317064681789        0.9094760952824575       -0.0107261469415997        0.4308753055723465
O        1.1851163274214669        0.7663630426279243        0.1659535069115607       -0.7095764258838037
N        1.3407039931430693        0.6488827557579369       -0.0897820529127206        0.9977500474782615
O        1.1909749413216255        0.8184283463291625       -0.1810456466682963       -0.9963537733476465
O        1.0026699684247296        2.2336443380954716        0.4711093132570615       -0.1586318904925156
N        0.9798374509410412        2.1954062970911297        0.3014086273797695        0.3123697133706422

        RMSE         7.918743247E-01 kcal/mol

Coordinates in bohr
s                   x[bohr]                   y[bohr]                   z[bohr]                      q[e]
+       -3.2069368574050596        0.5633815474424022       -3.0890911595799371        0.1158659338886357
-       -3.4937416604008202        0.9256075438691859        0.0854896085926470       -0.2341991647481463
+       -6.3803913989677303        0.0563199336920429        0.0965802292683012        0.0569852111266852
+       -4.1023896704042304       -0.0039825164652942        0.2557255960209098        0.3189271149812888
-       -3.5512178529626421       -0.5478417914540931       -0.0951149012033897       -0.2877498234141676
+       -2.6944521695305155        0.0498422655440670        1.4821651129708289        0.5692545008206258
-       -1.9356929879955307       -0.2281474194363373        0.0247417110317770       -0.2058946535748549
-       -2.1446065354923465       -0.0978807126433374        1.3956738033097675       -0.9992971180892700
+       -1.3189060857305497       -0.3069358229534510        0.7931861940795667        0.6691943173322236
+       -2.1627849015053027       -0.4493350282170063        3.6675182795116132        0.0628076875181509
+        2.2338589728034677       -2.7848596031460686       -0.3050835417456867        0.7576134719858190
-        1.9089115594840356       -2.1939109446853813       -0.3602791603559620       -0.9235083265987739
+        1.7563832029500976       -1.4154344136461199       -0.1540896724140766        0.9955526175656415
-        2.1426258863588465       -2.4394674159647818       -0.1872775130573747       -0.9936641819349231
-        0.8217263532814817        0.3178024206729527        0.4073135928916632       -0.9934394819660318
+        1.0513946639989298       -0.4018524288152679        0.0009219086538192        0.8475065253219278
+        0.5095880277762952        0.7605741289196314        0.3364251360481787        0.9207393412409772
-        0.8734730202544401        0.6602119271158550       -0.3314718132339862       -0.6738758902636315
+        4.8191103760747689        1.9153900652300266       -0.7984521492094564        0.1207489421105395
+        1.4714006778227287        1.7186607377346330       -0.0202694801010405        0.4308753055723465
-        2.2395452856349793        1.4482162632393398        0.3136066776221225       -0.7095764258838037
+        2.5335633623480911        1.2262106959148442       -0.1696634909864051        0.9977500474782615
-        2.2506164613810795        1.5466054278734658       -0.3421266884094865       -0.9963537733476465
-        1.8947716345441870        4.2209760606799707        0.8902675772083650       -0.1586318904925156
+        1.8516244297452886        4.1487166356077383        0.5695797575979340        0.3123697133706422
