25
s                      x[A]                      y[A]                      z[A]                      q[e]
N 1.9335003951133023 1.3152206395585622 -0.5009797993361123 0.1158659338886357
O 1.8160204313851183 -0.3554223248203914 -0.4548645662708340 -0.2341991647481463
N 3.3571351195312791 -0.5364329968264120 0.0333418380963527 0.0569852111266852
N 2.1198653644221221 -0.3828562523695891 0.0822772177321048 0.3189271149812888
O 1.9176114135890199 -0.1175389324922066 0.2939299106010135 -0.2877498234141676
N 1.3152565096196729 -0.7912680638048666 0.0558743593205081 0.5692545008206258
O 0.7414595948770339 -0.6617736594455209 0.5784260432412687 -0.2058946535748549
O 1.0381299899132161 -0.6436926850509413 0.0465340866036226 -0.9992971180892700
N 0.5329166601959312 -0.6046911950610336 0.1279103453126301 0.6691943173322236
N 0.8398780972737253 -2.0141490053284534 0.6204269666366049 0.0628076875181509
N -1.5469943600331857 -0.9894728582840603 -0.1042400081417925 0.7576134719858190
O -1.3350107832611218 -0.8119120529737974 -0.0269230414601371 -0.9235083265987739
N -1.0696141225771720 -0.4656127170199051 -0.0292803821452871 0.9955526175656415
O -1.4279964596959223 -0.8717328507329014 -0.1199690041788283 -0.9936641819349231
O -0.3128098128610565 0.0901702267440371 -0.0365252386728233 -0.9934394819660318
N -0.5984427467549294 -0.1571965411582789 0.0661674034826995 0.8475065253219278
N -0.1207527410071583 0.2496779633213793 0.0701674892930109 0.9207393412409772
O -0.4094682429830243 0.2949835391010214 0.2480390416456937 -0.6738758902636315
N -2.0992393033260472 1.6987538910407525 -0.0596812030286879 0.1207489421105395
N -0.4370157175452253 0.9158276052842551 0.1457797623759079 0.4308753055723465
O -0.7547982359350002 0.9290809668134586 -0.1242469969520797 -0.7095764258838037
N -0.9803815680640896 0.8622376266542204 -0.0027565578025705 0.9977500474782615
O -0.8376120271007108 0.9579336926634432 0.1398335172170346 -0.9963537733476465
O -0.0644748677465471 2.2056475201395820 -0.1292277911853532 -0.1586318904925156
N -0.0689443255439079 2.1706593279265585 0.0196852558159849 0.3123697133706422
