11

C  1.71455 -0.64281  0.14815
C  0.49760  0.18606 -0.12273
H  1.61675 -1.07307  1.15073
H  2.60931 -0.02179  0.10743
H  1.79148 -1.47000 -0.56087
O -0.60939 -0.59143 -0.37209
O  0.43074  1.40926 -0.01848
C -1.88337 -0.16550  0.20796
H -1.78502 -0.11418  1.29500
H -2.59375 -0.93635 -0.07999
H -2.18229  0.80633 -0.18800
