25
s                      x[A]                      y[A]                      z[A]                      q[e]
N        1.7270025063008263        0.6090932687443497       -1.5397087681087507        0.1158659338886357
O        1.7952092882006943       -0.3925677866347833       -0.1875903466452186       -0.2341991647481463
N        3.3793022540301543       -0.0914702968345445        0.0441140683418327        0.0569852111266852
N        2.1776287731957158       -0.0549599321843034        0.1297239374560605        0.3189271149812888
O        1.9265450213864996        0.3051444020858004        0.1455305226139287       -0.2877498234141676
N        1.4888602119493268       -0.1563448772221995        0.5319467623451681        0.5692545008206258
O        0.7238947308039794       -0.2978425005789182        0.9322924706872205       -0.2058946535748549
O        1.2244859073248604       -0.2200484843947785        0.3908023043303394       -0.9992971180892700
N        0.6687953660807689       -0.2806343126313748        0.4199875955661176        0.6691943173322236
N        1.1156284292169594       -0.6953210393364662        1.8229015131324848        0.0628076875181509
N       -1.2988999193379640       -1.4076235447062506       -0.2445112417581241        0.7576134719858190
O       -1.1460932725070234       -1.1116365981283181       -0.1012777256662439       -0.9235083265987739
N       -0.9957564640468973       -0.7104386352569768       -0.1065215776991896        0.9955526175656415
O       -1.2072252258686258       -1.2241561005019690       -0.2570367688687678       -0.9936641819349231
O       -0.3535738001209386        0.1596635636702884       -0.0073686381649467       -0.9934394819660318
N       -0.6033682799338594       -0.2126865052191390        0.0785976016414869        0.8475065253219278
N       -0.2232808033626709        0.3774231877684388        0.1442214842357974        0.9207393412409772
O       -0.5815788431123352        0.3283001793534217        0.3211546344966942       -0.6738758902636315
N       -2.4781808877331528        1.1901248600825514       -0.2972652266140104        0.1207489421105395
N       -0.7419740600153677        0.9147691847785134        0.1855149271064213        0.4308753055723465
O       -1.0156775462800198        0.8485015847054511       -0.1932889650782874       -0.7095764258838037
N       -1.2826969975708982        0.7192581664480933       -0.0635374659876529        0.9977500474782615
O       -1.1913438764872484        0.8560964581017827        0.1120831185652904       -0.9963537733476465
O       -0.6355478886589161        2.3061532137912817       -0.1090562376245274       -0.1586318904925156
N       -0.6965482937596708        2.2452431330468223        0.0460662932485028        0.3123697133706422

        RMSE         9.386740708E-01 kcal/mol

Coordinates in bohr
s                   x[bohr]                   y[bohr]                   z[bohr]                      q[e]
+        3.2635617548878191        1.1510194627867036       -2.9096278846915951        0.1158659338886357
-        3.3924538925774037       -0.7418456024169043       -0.3544943789391598       -0.2341991647481463
+        6.3859557552593085       -0.1728538096316212        0.0833635074457934        0.0569852111266852
+        4.1151219842566240       -0.1038592197020686        0.2451427137079748        0.3189271149812888
-        3.6406424587847788        0.5766393486587452        0.2750128306350723       -0.2877498234141676
+        2.8135380396753220       -0.2954489990682869        1.0052336941563706        0.5692545008206258
-        1.3679627848815414       -0.5628407546156701        1.7617774384252671       -0.2058946535748549
-        2.3139430093267217       -0.4158313698282122        0.7385093243821632       -0.9992971180892700
+        1.2638400758679613       -0.5303219922794087        0.7936615317095087        0.6691943173322236
+        2.1082321889947675       -1.3139663336146103        3.4447846135030629        0.0628076875181509
+       -2.4545651119280163       -2.6600229872409571       -0.4620592815184621        0.7576134719858190
-       -2.1658023992679802       -2.1006887214981473       -0.1913871641184519       -0.9235083265987739
+       -1.8817070047029305       -1.3425344495797140       -0.2012966083031445        0.9955526175656415
-       -2.2813250486356695       -2.3133197647571495       -0.4857290973345759       -0.9936641819349231
-       -0.6681576473659420        0.3017204075514433       -0.0139247080493454       -0.9934394819660318
+       -1.1402008018635665       -0.4019192454449296        0.1485279412202448        0.8475065253219278
+       -0.4219395674276514        0.7132264582795942        0.2725391066126907        0.9207393412409772
-       -1.0990247338429193        0.6203974259166516        0.6068943031202628       -0.6738758902636315
+       -4.6830831671596123        2.2490100406548397       -0.5617498649226372        0.1207489421105395
+       -1.4021277656230549        1.7286632272397162        0.3505724044154089        0.4308753055723465
-       -1.9193523942462558        1.6034356121102593       -0.3652632070711455       -0.7095764258838037
+       -2.4239460273560427        1.3592009480858569       -0.1200684094222559        0.9977500474782615
-       -2.2513136478021574        1.6177878427868517        0.2118063973756166       -0.9963537733476465
-       -1.2010114491783166        4.3579979774099176       -0.2060864213832065       -0.1586318904925156
+       -1.3162855083607237        4.2428946065233664        0.0870526778546973        0.3123697133706422
