30
s                      x[A]                      y[A]                      z[A]                      q[e]
N 2.7075546569133877 0.0978989196225081 1.8864129177217590 0.2137068255539760
N 2.1659674519215382 0.3967229434596191 1.2938541633967586 0.4524136045707061
O 2.3891705689288489 0.8716597800531836 1.3602392488465089 -0.5303393512711568
N 2.4473558939556899 1.4956154901684984 1.6262471696433125 0.2065219334641430
N 3.7956539788076924 -0.0725842998003834 0.8273102009696932 0.0640972179527254
N 2.3044401288966001 -0.3702255670503382 2.3687377211765317 0.2729192555687945
O 2.4522359974460559 -0.1262619746569617 1.9593938611722046 -0.5760168259183410
O 2.0263786061423770 -0.4085456243515665 -0.8228532633384562 -0.7855321009151053
O 1.4518693723363756 -0.4028568190664018 -0.9545613755304451 -0.7445427033607991
N 1.7654628656201627 -0.4262323331627634 -0.9108218863805909 0.9977538426035523
N 1.8197761491984250 0.0084016147064662 0.4782199279235052 0.2084365764815679
N 1.1196801583744056 0.0078595809802947 0.1576586870123741 0.3300899125146088
N 0.0174291633878737 0.7834024738758112 0.9426102394343632 0.6266498413516267
O 0.2758257396924229 0.3990660828047606 1.2131776459780759 -0.5811225412727979
N -0.1205601673908910 1.3241413009072029 1.2110760815832222 0.5003074335780895
O -0.1339672384724610 1.2373847598596770 1.0890498703428444 -0.5967490130385100
N -0.2053191982617431 -0.3225447760762862 1.5668144993200244 0.9708061175491041
O -0.2589105639560977 -0.6359618576966262 1.3511753324662721 -0.1568654630532827
O -0.2172142840576713 -0.1683802715576864 1.4838638549868128 -0.7813807259506527
N -0.6557781973312945 -0.3946940555934725 -0.3255291491857624 0.1400529194232831
N -0.7458469617217306 0.2492895758233036 -0.5144906905566988 0.1778327620465852
N -0.9996328337129582 0.4780530363655029 -0.9747538457919959 0.7120624373414439
O -0.9634684355401095 0.6405859036602081 -1.1058149208050665 -0.9970019554920370
N -1.8670757525178876 0.1750564849453393 0.1064889698730194 0.9931708722557875
N -2.5738328201098248 0.3043144447280521 0.4213731634857195 0.8506195801821621
O -2.2906887611936924 0.2832845173617476 0.3916992156317933 -0.8089940633040810
O -2.4416693325319447 0.2640482934631291 0.2884379100475841 -0.9883399134133223
N -1.1001522062396680 -1.7382451812318063 -0.8718590910287999 0.2529889584625400
N -1.1457371238887304 -0.9307266221703518 -0.6452960849025893 0.5419198115726583
O -1.1088188985377985 -1.3423857364307716 -0.7285013728535936 -0.9654652454832693
