25
s                      x[A]                      y[A]                      z[A]                      q[e]
N        2.4340041266259744        0.1753511548025088       -0.0691192499162564        0.1158659338886357
O        1.1494009913242706        1.1393145626476886        0.4460473598336842       -0.2341991647481463
N        1.8995359094395261        2.4915917496844879        0.0129554870654338        0.0569852111266852
N        1.1817185222007729        1.5269756116912554       -0.0159491662424925        0.3189271149812888
O        1.1138390287192403        1.2396685420973628       -0.3297601278890205       -0.2877498234141676
N        0.3116059965531204        1.2269700715655953       -0.0555789210880666        0.5692545008206258
O        0.3535894179603509        0.5818431672034849        0.5324079694664294       -0.2058946535748549
O        0.3312829746115106        0.9302935258262628       -0.1197923124680591       -0.9992971180892700
N        0.2950011756645583        0.3927963080672631        0.0514584517726253        0.6691943173322236
N       -0.9069848727745204        1.6585811068685927        0.1290522562447323        0.0628076875181509
N        1.0195257059569220       -1.8736221343105655       -0.0558757880001371        0.7576134719858190
O        0.7708470911670238       -1.6272762797594122        0.0414388443905555       -0.9235083265987739
N        0.4037438183382231       -1.4083795764174962       -0.0019118259026812        0.9955526175656415
O        0.8593634174832794       -1.7497707934246693       -0.0927219608753219       -0.9936641819349231
O       -0.2805414977068558       -0.6371417230372524       -0.0787433136335303       -0.9934394819660318
N        0.0484007047617693       -0.9128579333154395        0.0686679632859778        0.8475065253219278
N       -0.4752420456837401       -0.4396737669454891        0.0312352317017212        0.9207393412409772
O       -0.4658112740275417       -0.7392449727161129        0.3011370279200382       -0.6738758902636315
N       -2.9163212548266797        0.0870117208604601       -0.0928567009212359        0.1207489421105395
N       -1.0938399161524690       -0.8453415946102600        0.1471194085202040        0.4308753055723465
O       -1.4921230550145879       -0.2802168248121294        0.2260309857668188       -0.7095764258838037
N       -1.6298038845747855       -0.1050020957284333       -0.0075911285631812        0.9977500474782615
O       -1.5847315604834231       -0.3162548510747342       -0.1126401422070183       -0.9963537733476465
O       -1.9066012538196691       -1.6862478293401997        0.5712872469165273       -0.1586318904925156
N       -1.8960849998944513       -1.6649305988409544        0.3979065240309400        0.3123697133706422

        RMSE         4.139307940E+00 kcal/mol

Coordinates in bohr
s                   x[bohr]                   y[bohr]                   z[bohr]                      q[e]
+        4.5996011875572673        0.3313656583595008       -0.1306164523387985        0.1158659338886357
-        2.1720530819326007        2.1529924941498968        0.8429073490692017       -0.2341991647481463
+        3.5896026343131675        4.7084260233539581        0.0244823223755812        0.0569852111266852
+        2.2331243643402172        2.8855657063499134       -0.0301395561277081        0.3189271149812888
-        2.1048507121253208        2.3426340309096041       -0.6231563288061965       -0.2877498234141676
+        0.5888499925357535        2.3186373993923666       -0.1050289392048785        0.5692545008206258
-        0.6681871608051025        1.0995242339835529        1.0061052493026654       -0.2058946535748549
-        0.6260340920427541        1.7579999800981656       -0.2263746624998988       -0.9992971180892700
+        0.5574714286940899        0.7422774453380886        0.0972423806903417        0.6691943173322236
+       -1.7139530094770556        3.1342640488403419        0.2438734201749488        0.0628076875181509
+        1.9266243621226313       -3.5406326964427315       -0.1055899363644021        0.7576134719858190
-        1.4566898869114970       -3.0751064991991828        0.0783080668536143       -0.9235083265987739
+        0.7629652415058396       -2.6614516801173722       -0.0036128273556237        0.9955526175656415
-        1.6239615012808755       -3.3065875818976704       -0.1752191118697744       -0.9936641819349231
-       -0.5301465974917129       -1.2040233596427115       -0.1488032969784018       -0.9934394819660318
+        0.0914640762788866       -1.7250514854176260        0.1297636442034912        0.8475065253219278
+       -0.8980773096445864       -0.8308630040753472        0.0590260333814711        0.9207393412409772
-       -0.8802557340626410       -1.3969705380549979        0.5690665090032196       -0.6738758902636315
+       -5.5110484654739329        0.1644283221310553       -0.1754737336546834        0.1207489421105395
+       -2.0670578666219210       -1.5974640962711888        0.2780153898425325        0.4308753055723465
-       -2.8197039194590148       -0.5295330546403203        0.4271366589665440       -0.7095764258838037
+       -3.0798829800536267       -0.1984252035258442       -0.0143451539675527        0.9977500474782615
-       -2.9947086316830771       -0.5976350543787000       -0.2128590195038875       -0.9963537733476465
-       -3.6029542001736803       -3.1865465771007284        1.0795764356390387       -0.1586318904925156
+       -3.5830813603892482       -3.1462628497038985        0.7519343539513804        0.3123697133706422
