10
s                      x[A]                      y[A]                      z[A]                      q[e]
C -0.2707222930041273 -1.2923471815463521 -0.8664136861152694
C -0.3940866444549436 -0.2529237910064801 -0.0447957964820205
C 0.6076935549015827 0.6549741609841766 0.5163323187345066
C 1.8332709273546821 0.8449957957060147 0.0113974906247191
H -1.1376903049361464 -1.8507496625494566 -1.1940004266242901
H 0.7061913798759226 -1.6044793007448814 -1.2129390753187625
F -1.6913306075479209 0.0744073835086078 0.4116992185902557
H 0.2891862620330266 1.1911309621003239 1.4056895418669881
H 2.1701418125827399 0.3522993637515612 -0.8961203946097237
H 2.5372096901931247 1.5139394882563419 0.4929538845327458
