25
s                      x[A]                      y[A]                      z[A]                      q[e]
N 2.1795023416479995 0.1976092613941664 -1.0963905023499314 0.1158659338886357
O 1.7402809478590178 0.6026235763162512 0.4789888238254810 -0.2341991647481463
N 2.8500650111668637 1.7262726414270781 0.6196964557536881 0.0569852111266852
N 1.7939586142552639 1.1584564444929624 0.4477015811892270 0.3189271149812888
O 1.5094573177310859 1.2411910848694294 0.0681761837675005 -0.2877498234141676
N 0.9979585208689116 0.9300648852593476 0.8173472858155838 0.5692545008206258
O 0.4082236537098720 0.9948289750678859 0.1871026719418670 -0.2058946535748549
O 0.7796094449969743 0.7332992347236267 0.7620481343514071 -0.9992971180892700
N 0.2997472146038432 0.6145766486456883 0.5115424928714641 0.6691943173322236
N 0.1572390860561389 1.3847404266852679 1.7262351146580492 0.0628076875181509
N -1.9629213960494725 0.0908748455758748 0.4733923047051207 0.7576134719858190
O -1.6508649228507921 0.0812587675313454 0.3164319989096290 -0.9235083265987739
N -1.2737620283641149 -0.1125357180578244 0.1929169199828268 0.9955526175656415
O -1.7845502744383861 0.0157474001567941 0.4430697769338489 -0.9936641819349231
O -0.2472825414744311 -0.3160308877787642 0.0224004572761374 -0.9934394819660318
N -0.6501136170725091 -0.1327509523738044 0.0285867512709622 0.8475065253219278
N 0.0019270204371584 -0.2962343495257030 -0.1109948115179520 0.9207393412409772
O -0.2731893016373882 -0.2682247348707886 -0.3952634340958370 -0.6738758902636315
N -1.2730951777966355 -1.9888158795003299 -1.3144026243044760 0.1207489421105395
N -0.0464838727975560 -0.8341683790443566 -0.6376127799457630 0.4308753055723465
O -0.3563405318941208 -1.1332562711059511 -0.4773825097834212 -0.7095764258838037
N -0.6096526769654157 -1.0711133425248793 -0.6506866574064932 0.9977500474782615
O -0.4313428304317847 -1.0072277884527689 -0.7845291898598348 -0.9963537733476465
O 0.8573597878084964 -1.8834591031069374 -0.9807812657951831 -0.1586318904925156
N 0.7779275231743739 -1.7783657682097611 -1.1008704158370277 0.3123697133706422
