21
s                      x[A]                      y[A]                      z[A]                      q[e]
N -1.9802323191931479 1.4198564385276498 0.2239706054573903 0.0707249461841811
O -1.6163468269122674 -0.1207135429178016 0.3212903650527377 -0.3496602100029151
N -1.5093014711267050 0.1538581664580675 -0.1397910707471559 0.9824851761690530
N -3.0440647177708509 -0.6960168194922414 0.0492634464625694 0.1071394941056757
O -1.5681203778662272 0.0575852729738149 -0.2914834719465651 -0.8194842575378962
N -0.4812952583950073 -0.6527887237738340 -0.1799521389537479 0.3116552922920345
N -0.7383947477186756 -2.0125523971872821 -0.1836497545018234 0.0918298459672651
N -1.2453338307889505 -1.0083508601243114 -0.1122957425236187 0.5593901217632046
O -0.9470502620860024 -0.8166245685797258 -0.1237105322277423 -0.9963138680841535
N 0.7233042941737039 0.8892504331600144 -0.1076865035754747 0.9989733053171830
O 0.6951762930921271 0.9858420698315518 -0.1239430695687123 -0.8354521971080898
N 0.5054461598880151 1.7386505712742069 -0.0346043626442363 0.2899344186932475
O 0.5165368195017449 1.3515063669475837 -0.0256507219814519 -0.8678253524624289
N 0.5348998722131110 -0.4071897830407977 -0.1075421971084577 0.9219570073558310
O 0.6533623039446836 -0.2307034104053965 -0.2678570878933034 -0.9704818863270434
O 0.7753412422145454 -0.2489357536374895 0.3956853692701303 -0.3320651923316272
N 0.6031686008552766 0.3422785295138047 -0.0397700309929353 0.9769593393400061
O 1.5535374329268954 -0.5459755850647476 -0.4767112880127440 -0.1970026432733326
O 1.4977886129481144 -0.5032185652538488 0.5256183319934007 -0.1946060569702309
N 2.7748798038977895 0.0243372825571012 0.1048873004280104 0.1283355164991325
N 1.7359553732784097 -1.8951389999635042 0.0606308339173346 0.1235072004109040
