21
s                      x[A]                      y[A]                      z[A]                      q[e]
N -2.0620359321554758 1.5606833171155616 -0.2291484179654651 0.0707249461841811
O -1.7035363706463016 0.0797282100054099 0.2558687516533241 -0.3496602100029151
N -1.5585086255769947 0.2518854026665394 -0.2430368928100065 0.9824851761690530
N -3.1121616488945683 -0.5429801648178176 0.0432134840481823 0.1071394941056757
O -1.6069324569569676 0.1256419548308847 -0.3752351051533901 -0.8194842575378962
N -0.6277310005521985 -0.3437780598296446 0.1852352162545736 0.3116552922920345
N -0.8295983603909075 -1.8724991976083247 0.2269565767566000 0.0918298459672651
N -1.3959164505826793 -0.6919786742454778 0.1266217201497042 0.5593901217632046
O -1.0563438199219741 -0.5897247854966657 0.1319215067385526 -0.9963138680841535
N 1.3112401822089461 -0.4659815190966433 0.0501970142002797 0.9989733053171830
O 1.3625550309641941 -0.5532796716841133 0.0614917517589546 -0.8354521971080898
N 1.7763127288122083 -1.2038808590070360 -0.0659937159389653 0.2899344186932475
O 1.5025989354453089 -0.9300102374775125 -0.0560348246205464 -0.8678253524624289
N 0.2364991872211005 0.2896938731287752 0.1116445161284339 0.9219570073558310
O 0.4507575952345347 0.2484980276900232 0.2642638280360322 -0.9704818863270434
O 0.5018108337459473 0.3759496128380669 -0.3966219958021217 -0.3320651923316272
N 0.8257687848174782 -0.1719095103799549 0.0081110255221366 0.9769593393400061
O 0.8526274479496762 1.0847903984512304 0.5386817339682261 -0.1970026432733326
O 0.8197288394195473 1.0951921316051154 -0.4655424466313056 -0.1946060569702309
N 2.0997302202887558 1.6062251800600593 -0.0337865244820891 0.1283355164991325
N 0.0054545187624062 2.1984475954874405 0.1091573560379849 0.1235072004109040
