21
s                      x[A]                      y[A]                      z[A]                      q[e]
N -1.9524409185666101 1.4602768091961651 -0.1648167644044456 0.0707249461841811
O -1.6330609512999090 -0.0223229944308713 0.2922321816133218 -0.3496602100029151
N -1.4879571431866887 0.1481963503433822 -0.2062366446763750 0.9824851761690530
N -3.0503214786859130 -0.6281158812979334 0.0681942835815361 0.1071394941056757
O -1.5375946775835698 0.0222470212030713 -0.3379414120470438 -0.8194842575378962
N -0.5218139370894720 -0.6043954862760458 -0.0788030159301062 0.3116552922920345
N -0.7567806690949298 -1.9749144283655764 0.2635240247926136 0.0918298459672651
N -1.2961164142949673 -0.9216401748688046 0.0394631247607933 0.5593901217632046
O -0.9902488312839337 -0.7447205751712807 0.0074792710450282 -0.9963138680841535
N 0.7622719281588818 0.8706923139906810 -0.0841685628161518 0.9989733053171830
O 0.7383440707372246 0.9684773715271258 -0.0999143232884211 -0.8354521971080898
N 0.5908486448564769 1.7300425489156104 -0.0083454352200165 0.2899344186932475
O 0.5828422351700646 1.3426123935678465 0.0032193152614202 -0.8678253524624289
N 0.5066194815399525 -0.4068206528626425 -0.0709334797026472 0.9219570073558310
O 0.6236394900913537 -0.2387454762963120 -0.2401843068864307 -0.9704818863270434
O 0.7844150385406958 -0.2552298090395402 0.4139634513533371 -0.3320651923316272
N 0.6155413019175289 0.3384856644673661 -0.0189188304444988 0.9769593393400061
O 1.4701736505384071 -0.5995548813444066 -0.5394129555065920 -0.1970026432733326
O 1.5096112702070139 -0.5498128736471806 0.4628377683302978 -0.1946060569702309
N 2.7712648523671302 -0.0962973956405637 -0.0397257558856209 0.1283355164991325
N 1.6277981130306065 -1.9518769507562790 -0.0092667364688425 0.1235072004109040
