13
s                      x[A]                      y[A]                      z[A]                      q[e]
C 2.8324022937531574 0.1048165114775194 -0.2462609710111201
C 1.3639456786998150 0.1234260871632244 -0.5747502577503972
H 3.1086180353299198 0.9518258910695059 0.3912720565702650
H 3.4164357272714048 0.1287206377729539 -1.1669179215451193
H 3.0738704727290935 -0.8136091964152449 0.3031429930894765
C 0.4397304109242212 0.3950409471800019 0.6070093999603526
O 0.9358168474740841 -0.0638811644894630 -1.7135965090809733
C -0.9910099898980959 -0.0289914614249655 0.4231163811712002
H 0.4484927866322637 1.4708331426784289 0.8189813430505555
H 0.8230610666369855 -0.1097637065661996 1.4991236387849622
F -1.6645622654397940 0.7012139267691365 -0.5386846793811869
F -1.6951991960619945 0.1508867282014923 1.6198300741104714
F -1.1099515941003573 -1.3724012525323310 0.0975748193644834
