30
s                      x[A]                      y[A]                      z[A]                      q[e]
N       -3.0962460587804097       -0.8997006808631720        0.4642513940570741        0.2137068255539760
N       -2.4306702165649168       -0.6909232439207914       -0.0325416394588117        0.4524136045707061
O       -2.6755856369208217       -0.9546279032431380       -0.4365450494116915       -0.5303393512711568
N       -2.8119429005468279       -1.4827643821931733       -0.8228945475143483        0.2065219334641430
N       -3.8780824816831907        0.3076243875966604       -0.0483189062421232        0.0640972179527254
N       -2.8223729458314470       -1.1363300311187612        1.1561556908900581        0.2729192555687945
O       -2.8681810181132965       -0.9021072112556550        0.7145938683847459       -0.5760168259183410
O       -1.6967949130216260        1.4603239335173823        0.0408297965816255       -0.7855321009151053
O       -1.1192169675360502        1.4257115377658538       -0.0568161014285314       -0.7445427033607991
N       -1.4173767089505109        1.4807150441780361        0.0068356439817680        0.9977538426035523
N       -1.8761151120287927        0.0981496776821594       -0.0557041461442180        0.2084365764815679
N       -1.1136588734275319        0.2016971011123126       -0.1198093983518830        0.3300899125146088
N       -0.3671656069641471       -1.0104747955684654       -0.7639307281443602        0.6266498413516267
O       -0.6245579702460796       -1.1065239746506439       -0.3060429622785962       -0.5811225412727979
N       -0.2220005252786593       -1.1338070848713491       -1.3905609716296157        0.5003074335780895
O       -0.1921583244936172       -1.0438777910504922       -1.3065029736668177       -0.5967490130385100
N       -0.2732437213415227       -1.5597520328052978        0.2439427649974238        0.9708061175491041
O       -0.1665423596550804       -1.3860936548934177        0.5566882278847454       -0.1568654630532827
O       -0.2428458431542070       -1.4863551646851512        0.0805725145608964       -0.7813807259506527
N        0.7157592774201288        0.1018874019250004        0.3825219206611991        0.1400529194232831
N        0.8678089539355079        0.2803155024501520       -0.2545461146643449        0.1778327620465852
N        1.2954675524579469        0.6037051126759967       -0.5208354562891077        0.7120624373414439
O        1.3050852246582865        0.7205133265607592       -0.6746694036484335       -0.9970019554920370
N        1.7488143342984497       -0.6744589801111266       -0.1099968598049599        0.9931708722557875
N        2.3248993950989929       -1.2024657603703566       -0.1677927457584893        0.8506195801821621
O        2.0591051143732120       -1.0909633105286829       -0.1661011120952416       -0.8089940633040810
O        2.2331506027230343       -1.0393118557495573       -0.1363842192239380       -0.9883399134133223
N        1.1955414580394488        0.5990833662457906        1.7005577580732991        0.2529889584625400
N        1.2248514032549160        0.3247678953114523        0.9066556438756196        0.5419198115726583
O        1.1854774847068816        0.4385028478153203        1.3184717610557328       -0.9654652454832693

        RMSE         1.261693269E+00 kcal/mol

Coordinates in bohr
s                   x[bohr]                   y[bohr]                   z[bohr]                      q[e]
+       -5.8510570681231746       -1.7001878817193321        0.8773079881298700        0.2137068255539760
+       -4.5933010106149599       -1.3056557047231911       -0.0614947862505457        0.4524136045707061
-       -5.0561240789889998       -1.8039852888495855       -0.8249505848125520       -0.5303393512711568
+       -5.3138019624590038       -2.8020185909287756       -1.5550453249346621        0.2065219334641430
+       -7.3285137823170547        0.5813258420693743       -0.0913094994792876        0.0640972179527254
+       -5.3335118915230568       -2.1473525469474297        2.1848176141716880        0.2729192555687945
-       -5.4200766024709290       -1.7047355650737153        1.3503867021786271       -0.5760168259183410
-       -3.2064776766809100        2.7596122887991381        0.0771571332974264       -0.7855321009151053
-       -2.1150135436085598        2.6942043402827891       -0.1073668712161577       -0.7445427033607991
+       -2.6784537965192170        2.7981459033416769        0.0129174950166755        0.9977538426035523
+       -3.5453437415670495        0.1854760101212418       -0.1052655802650496        0.2084365764815679
+       -2.1045102679639398        0.3811522814010464       -0.2264069501409375        0.3300899125146088
+       -0.6938424398497294       -1.9095206203023871       -1.4436198550144193        0.6266498413516267
-       -1.1802435132369296       -2.0910272633427573       -0.5783373813303678       -0.5811225412727979
+       -0.4195201924844434       -2.1425848695105696       -2.6277793971305066        0.5003074335780895
-       -0.3631266060197914       -1.9726431335333230       -2.4689328023265262       -0.5967490130385100
+       -0.5163557988363943       -2.9475041656281267        0.4609850161320513        0.9708061175491041
-       -0.3147194480355991       -2.6193373919834184        1.0519882879686244       -0.1568654630532827
-       -0.4589121342673391       -2.8088041864147026        0.1522599857595571       -0.7813807259506527
+        1.3525890060796348        0.1925392852726955        0.7228616670337744        0.1400529194232831
+        1.6399212521581583        0.5297195283508901       -0.4810224430149965        0.1778327620465852
+        2.4480788785626917        1.1408373234962927       -0.9842363688142755        0.7120624373414439
-        2.4662536449857630        1.3615728569423944       -1.2749403981214977       -0.9970019554920370
+        3.3047801360989202       -1.2745427552656377       -0.2078639396917547        0.9931708722557875
+        4.3934231259796679       -2.2723309623403751       -0.3170823353221205        0.8506195801821621
-        3.8911447296948878       -2.0616218698220132       -0.3138856109939772       -0.8089940633040810
-        4.2200430360476133       -1.9640147663079961       -0.2577288221676435       -0.9883399134133223
+        2.2592459273250900        1.1321034885218910        3.2135884232811063        0.2529889584625400
+        2.3146336965344965        0.6137223764800043        1.7133308570255470        0.5419198115726583
-        2.2402277739926273        0.8286502876042690        2.4915505325454093       -0.9654652454832693
