21
s                      x[A]                      y[A]                      z[A]                      q[e]
N        1.9744731117077263        1.4265357945031858        0.1327070544131968        0.0707249461841811
O        1.6416197917268216       -0.0750417984990322       -0.2611094449022191       -0.3496602100029151
N        1.4832163428335408        0.1259028964115663        0.2227104454190994        0.9824851761690530
N        3.0386705793719151       -0.6897865166492984        0.0281709134577528        0.1071394941056757
O        1.5263953739071310        0.0068982196071048        0.3629320883868188       -0.8194842575378962
N        0.4860475598899352       -0.6508328699664901        0.0726485061418296        0.3116552922920345
N        0.7355107981445360       -2.0111428016970474       -0.1504737310202692        0.0918298459672651
N        1.2457471753505154       -1.0065208136792667       -0.0323498436055355        0.5593901217632046
O        0.9483919754208708       -0.8147995301742430       -0.0064842103751222       -0.9963138680841535
N       -0.7192960867110673        0.8861109716253267        0.0609066412706313        0.9989733053171830
O       -0.6906128669338018        0.9826450552723115        0.0755920840417999       -0.8354521971080898
N       -0.5061061139162960        1.7358069366059177       -0.0213025268242343        0.2899344186932475
O       -0.5172648218197761        1.3485835371919741       -0.0305813068538126       -0.8678253524624289
N       -0.5298527768917581       -0.4056752628884168        0.0496984366300709        0.9219570073558310
O       -0.6407090431988138       -0.2296787873507953        0.2153908511881357       -0.9704818863270434
O       -0.7945821050054785       -0.2470596536766126       -0.4413631821992742       -0.3320651923316272
N       -0.6019886446356398        0.3437529581269679       -0.0135302444579935        0.9769593393400061
O       -1.4878519430604067       -0.5408563306014058        0.5497930788391887       -0.1970026432733326
O       -1.5472849814811263       -0.5082361132545395       -0.4526295550351746       -0.1946060569702309
N       -2.7682563378968275        0.0191295814230578        0.1063569389131789        0.1283355164991325
N       -1.7236345236297106       -1.8937149260382002        0.0504218958517487        0.1235072004109040

        RMSE         3.890628798E-01 kcal/mol

Coordinates in bohr
s                   x[bohr]                   y[bohr]                   z[bohr]                      q[e]
+        3.7312134232081031        2.6957619597734097        0.2507799877571715        0.0707249461841811
-        3.1022118084948134       -0.1418084471249632       -0.4934253396355147       -0.3496602100029151
+        2.8028726727585567        0.2379219926197474        0.4208617471208219        0.9824851761690530
+        5.7422551804991828       -1.3035076015007303        0.0532353111391269        0.1071394941056757
-        2.8844692158502756        0.0130357458106913        0.6858422491915411       -0.8194842575378962
+        0.9184967721390389       -1.2298958776823739        0.1372857800316989        0.3116552922920345
+        1.3899139708100687       -3.8005090943933628       -0.2843541407041167        0.0918298459672651
+        2.3541209829751630       -1.9020486774267813       -0.0611323446158553        0.5593901217632046
-        1.7922010931273780       -1.5397479591810310       -0.0122533817488331       -0.9963138680841535
+       -1.3592726069974832        1.6745070531352002        0.1150968712230000        0.9989733053171830
-       -1.3050691772221359        1.8569300330000387        0.1428483360915930       -0.8354521971080898
+       -0.9564019457215602        3.2801997168551229       -0.0402559414780216        0.2899344186932475
-       -0.9774888475731193        2.5484535425940020       -0.0577902945122923       -0.8678253524624289
+       -1.0012766351387332       -0.7666151427322137        0.0939164340942552        0.9219570073558310
-       -1.2107646177498868       -0.4340300049202709        0.4070297186748193       -0.9704818863270434
-       -1.5015425626501282       -0.4668750820992579       -0.8340555362171719       -0.3320651923316272
+       -1.1375936689969171        0.6495989456759421       -0.0255684564361012        0.9769593393400061
-       -2.8116326876144435       -1.0220703380567329        1.0389583446783104       -0.1970026432733326
-       -2.9239448530334160       -0.9604270611182469       -0.8553458953043213       -0.1946060569702309
+       -5.2312463236878477        0.0361496697842250        0.2009854860879564        0.1283355164991325
+       -3.2571971900441223       -3.5786025699038260        0.0952835738861631        0.1235072004109040
