21
s                      x[A]                      y[A]                      z[A]                      q[e]
N 0.0271934974514972 -0.0450300980188642 0.3787826926322617 0.0707249461841811
O 0.1028075834412168 0.2923406836732500 0.3139408797507847 -0.3496602100029151
N 0.3753758699552684 -0.1822081217308918 0.3124901265219879 0.9824851761690530
N 0.0336257421976588 -0.0110076851797279 -0.1884611515503206 0.1071394941056757
O 0.2563871360563755 -0.3289024775481217 0.3210794309840175 -0.8194842575378962
N 0.1011090524796310 0.1261553889102558 0.2907130116635141 0.3116552922920345
N 0.0297840525345075 -0.0162908930475322 0.2435685073925167 0.0918298459672651
N 0.0908833481549465 0.0397326960678647 -0.5502130281603771 0.5593901217632046
O 0.0473844707033527 0.0585068779568802 -0.1987144569197808 -0.9963138680841535
N 0.2262187134488920 0.0842163378305543 -0.4263497149190420 0.9989733053171830
O 0.2004764059404445 0.0998444819667652 -0.3290354792847103 -0.8354521971080898
N 0.0344346656243838 0.0064693771692290 0.4288733539947953 0.2899344186932475
O 0.0347286710986310 -0.0024877547474211 0.0415738539453569 -0.8678253524624289
N 0.0011045027186507 0.0785850064536046 -0.3512230571526994 0.9219570073558310
O 0.1206448927770198 0.2418329741847764 -0.1782682234482230 -0.9704818863270434
O 0.2581235910676358 -0.4185389927696586 -0.1999474439429221 -0.3320651923316272
N 0.0922706251447923 0.0130158911242175 0.3959908871309302 0.9769593393400061
O 0.1996794012523720 -0.5144032647521014 -0.0956361387517262 -0.1970026432733326
O 0.2308393722108560 0.4896599918657908 -0.0748573900581362 -0.1946060569702309
N 0.0218028369483676 -0.0000573550665704 0.1846597208378092 0.1283355164991325
N 0.0371570504896593 0.0045424043328370 -0.1491820140086579 0.1235072004109040
