25
s                      x[A]                      y[A]                      z[A]                      q[e]
N        1.7152720853314258        0.8870821345109599       -1.2675138601043703        0.1158659338886357
O        1.7355904814034808       -0.5422401225674839       -0.3581390354226779       -0.2341991647481463
N        3.3292264800838280       -0.4226620650763085       -0.0817057001658385        0.0569852111266852
N        2.1344925771047487       -0.3438621132811427        0.0496471650926079        0.3189271149812888
O        1.9048291715214316       -0.0062258617557406        0.1870763443639923       -0.2877498234141676
N        1.3728630839453371       -0.6625191671266291        0.5995965994590196        0.5692545008206258
O        0.9851270232531499       -0.2923427163161710       -0.0939082194942251       -0.2058946535748549
O        1.1275782564643104       -0.4828266521279800        0.6081680258815012       -0.9992971180892700
N        0.7023228712712839       -0.2333252173253408        0.3385527406965980        0.6691943173322236
N        1.0624810634748811       -1.4734351407068000        1.4477290214035985        0.0628076875181509
N       -0.8076710870429420        1.5989881764248870        0.1114550698950840        0.7576134719858190
O       -0.7195231325459125        1.2547495342272263        0.0357770247195009       -0.9235083265987739
N       -0.7452262864161289        0.8284144879915432        0.0820116059633129        0.9955526175656415
O       -0.7991695028779562        1.3978599090116268        0.1541621753685654       -0.9936641819349231
O       -0.4769310355557563       -0.2105754968097516        0.2298036085199598       -0.9934394819660318
N       -0.5172293233589906        0.2098873288292455        0.0638531761797178        0.8475065253219278
N       -0.3845926963738072       -0.4800072276714939        0.1410491662560348        0.9207393412409772
O       -0.5789424835003987       -0.3256765598261848       -0.1768958472117648       -0.6738758902636315
N       -2.7271323880918996       -0.3985052792774825       -0.5313990180352673        0.1207489421105395
N       -0.9894143981534808       -0.8043315599240386       -0.1622609249533311        0.4308753055723465
O       -1.3549302709047786       -0.6008476663527598        0.0554511078878275       -0.7095764258838037
N       -1.4733480041229154       -0.4050520450414620       -0.1723137259980868        0.9977500474782615
O       -1.3673969295724160       -0.5810943344444351       -0.2967244106328829       -0.9963537733476465
O       -1.5365035223679466       -2.1005169511583146        0.0604623292860439       -0.1586318904925156
N       -1.4955138195483748       -2.0430713029445333       -0.0996805217725278        0.3123697133706422

        RMSE         7.854073823E-01 kcal/mol

Coordinates in bohr
s                   x[bohr]                   y[bohr]                   z[bohr]                      q[e]
+        3.2413944719193246        1.6763422850122560       -2.3952540558191271        0.1158659338886357
-        3.2797906758040867       -1.0246853258872293       -0.6767846917845010       -0.2341991647481463
+        6.2913262569804154       -0.7987155466146568       -0.1544013962022090        0.0569852111266852
+        4.0336063875506509       -0.6498052190225145        0.0938195449304191        0.3189271149812888
-        3.5996054499582399       -0.0117651736133118        0.3535230553997816       -0.2877498234141676
+        2.5943352364081069       -1.2519797787357521        1.1330733587333823        0.5692545008206258
-        1.8616202727359787       -0.5524476686099747       -0.1774608157734653       -0.2058946535748549
-        2.1308140897387946       -0.9124101385935822        1.1492710071763854       -0.9992971180892700
+        1.3271978783479004       -0.4409207589078220        0.6397719589397109        0.6691943173322236
+        2.0077982234527001       -2.7843888795612712        2.7358113543298752        0.0628076875181509
+       -1.5262771539619711        3.0216497312882797        0.2106195573954685        0.7576134719858190
-       -1.3597016614432667        2.3711329757352311        0.0676087783035914       -0.9235083265987739
+       -1.4082735828184769        1.5654765006653895        0.1549794743796254        0.9955526175656415
-       -1.5102114882576188        2.6415723897893737        0.2913242903513893       -0.9936641819349231
-       -0.9012690379313690       -0.3979300177026491        0.4342658827446512       -0.9934394819660318
+       -0.9774217652043595        0.3966295686911832        0.1206650152202742        0.8475065253219278
+       -0.7267748659978537       -0.9070821985394057        0.2665442944480737        0.9207393412409772
-       -1.0940427362081411       -0.6154395035527708       -0.3342847039610682       -0.6738758902636315
+       -5.1535333213594594       -0.7530658373835268       -1.0041986074238802        0.1207489421105395
+       -1.8697222370947661       -1.5199663623187043       -0.3066287090252618        0.4308753055723465
-       -2.5604471311024128       -1.1354375325271786        0.1047874072612083       -0.7095764258838037
+       -2.7842242152822214       -0.7654374316849717       -0.3256257497935664        0.9977500474782615
-       -2.5840057016838123       -1.0981091451551779       -0.5607278708340354       -0.9963537733476465
-       -2.9035708480766851       -3.9694017595708919        0.1142572432578711       -0.1586318904925156
+       -2.8261115357837880       -3.8608452173474497       -0.1883688861928136        0.3123697133706422
