21
s                      x[A]                      y[A]                      z[A]                      q[e]
N 0.0262394874502585 -0.0473889359068681 0.3765238182738417 0.0707249461841811
O 0.1087014570690550 0.2833033352299084 0.3123220664038550 -0.3496602100029151
N 0.3684740792637504 -0.1719122134574716 0.3159921632985200 0.9824851761690530
N 0.0350530124549464 -0.0148125966481504 -0.1892106015966697 0.1071394941056757
O 0.2628693397745889 -0.3368916227668299 0.3195796680790038 -0.8194842575378962
N 0.0925619418912975 0.1218665213134173 0.2874944404288284 0.3116552922920345
N 0.0291095285146426 -0.0128051774778091 0.2452863783281066 0.0918298459672651
N 0.0800330189651552 0.0348137918804146 -0.5528774032860763 0.5593901217632046
O 0.0578901390074440 0.0642521905918920 -0.1938832097261732 -0.9963138680841535
N 0.2181595901790125 0.0807619805637882 -0.4228659960886151 0.9989733053171830
O 0.2058644495503291 0.1024885361110995 -0.3345712721123290 -0.8354521971080898
N 0.0291177928837152 0.0047183722370018 0.4300475474905789 0.2899344186932475
O 0.0406733693527986 0.0003362118583875 0.0362363583416583 -0.8678253524624289
N -0.0056940878974877 0.0739359853829671 -0.3443323802490617 0.9219570073558310
O 0.1258516421614345 0.2455396747059920 -0.1844007820611247 -0.9704818863270434
O 0.2631597752764501 -0.4153907435644839 -0.2041674695315653 -0.3320651923316272
N 0.0844423170685178 0.0093470158184821 0.4011025480598001 0.9769593393400061
O 0.1964375210007866 -0.5162382199014411 -0.0959170313942803 -0.1970026432733326
O 0.2274201576129026 0.4882577538991795 -0.0740939660282342 -0.1946060569702309
N 0.0231524047516108 0.0002859924249451 0.1841374539158019 0.1283355164991325
N 0.0373862244774300 0.0056892507103107 -0.1471746580096727 0.1235072004109040
