21
s                      x[A]                      y[A]                      z[A]                      q[e]
N        1.8643422518222907        1.2190694720631601       -1.1872893364758859        0.0707249461841811
O        1.6326858985223649       -0.0932276854971353       -0.3701283264451053       -0.3496602100029151
N        1.5275402872373132        0.3560146018047079       -0.1214473091816687        0.9824851761690530
N        3.1242243683179463       -0.3444646166381425        0.0691071006955172        0.1071394941056757
O        1.6005887802377388        0.3794580897106867        0.0588240341715038       -0.8194842575378962
N        0.6707045637972702       -0.2318862127242016        0.1573222073953217        0.3116552922920345
N        0.9540316397463600       -1.4798324856172778        1.1179882937363739        0.0918298459672651
N        1.4328375316594757       -0.5094826485168248        0.3940785071066314        0.5593901217632046
O        1.0976115771022910       -0.4174439571378222        0.2971961240759289       -0.9963138680841535
N       -1.2120609922209815       -0.5412844697445783       -0.2251620245369907        0.9989733053171830
O       -1.2526428998541856       -0.6155285181758550       -0.2606599403414770       -0.8354521971080898
N       -1.6109403307279846       -1.3202825575063657       -0.2802818656879408        0.2899344186932475
O       -1.3776488312126351       -1.0113796864977664       -0.2068374655438310       -0.8678253524624289
N       -0.2484369880881189        0.3028311382045681        0.0405696644590622        0.9219570073558310
O       -0.4107642226618409        0.2745567284583575       -0.1719877349748484       -0.9704818863270434
O       -0.6417455743846100        0.3386002430187760        0.4593753194932942       -0.3320651923316272
N       -0.7903025472938552       -0.2145144697371429       -0.0413130353163592        0.9769593393400061
O       -0.8038840509563816        1.1227924448428939       -0.4157242543550481       -0.1970026432733326
O       -1.0424818494456107        0.9741281794310106        0.5493759259789445       -0.1946060569702309
N       -2.2050921395183058        1.4634423014224511       -0.1468227456363505        0.1283355164991325
N       -0.2182549894718191        2.1899467965320580        0.3844409299244388        0.1235072004109040

        RMSE         6.142589882E-01 kcal/mol

Coordinates in bohr
s                   x[bohr]                   y[bohr]                   z[bohr]                      q[e]
+        3.5230962600634599        2.3037074301058356       -2.2436516776159716        0.0707249461841811
-        3.0853291971043015       -0.1761747928999024       -0.6994411682552990       -0.3496602100029151
+        2.8866327884817058        0.6727700940748221       -0.2295021530271537        0.9824851761690530
+        5.9039284106024033       -0.6509437853569131        0.1305934936389637        0.1071394941056757
-        3.0246744341299334        0.7170718656426051        0.1111613141787148       -0.8194842575378962
+        1.2674479366714981       -0.4382014343183952        0.2972958854296342        0.3116552922920345
+        1.8028585141420674       -2.7964781093721656        2.1126916866296459        0.0918298459672651
+        2.7076705171134190       -0.9627826713696918        0.7447004503608198        0.5593901217632046
-        2.0741852728551686       -0.7888547517178404        0.5616192800510891       -0.9963138680841535
+       -2.2904633226483262       -1.0228794037809170       -0.4254945602285278        0.9989733053171830
-       -2.3671520137237083       -1.1631803217612569       -0.4925758991235680       -0.8354521971080898
+       -3.0442360295303468       -2.4949724419060568       -0.5296559640825638        0.2899344186932475
-       -2.6033789880489584       -1.9112306163321771       -0.3908661623616608       -0.8678253524624289
+       -0.4694778669201735        0.5722679134673025        0.0766655548293478        0.9219570073558310
-       -0.7762318829674573        0.5188370226879889       -0.3250097160402881       -0.9704818863270434
-       -1.2127233778115376        0.6398617253189506        0.8680935426370148       -0.3320651923316272
+       -1.4934553706370690       -0.4053735977510116       -0.0780703221592859        0.9769593393400061
-       -1.5191206929311463        2.1217702164862842       -0.7856049844412097       -0.1970026432733326
-       -1.9700051862129648        1.8408354702154517        1.0381700400199974       -0.1946060569702309
+       -4.1670202250894404        2.7655051500981358       -0.2774547782404609        0.1283355164991325
+       -0.4124421556164198        4.1383996747693086        0.7264880689735141        0.1235072004109040
