21
s                      x[A]                      y[A]                      z[A]                      q[e]
N       -1.7576346652846149        1.0561362100536400       -1.2909757132491522        0.0707249461841811
O       -1.6596364617528230        0.1442002567486439        0.0156161054032082       -0.3496602100029151
N       -1.4222612583565091       -0.0023076370419756       -0.4517851503071271        0.9824851761690530
N       -3.0839243875413702       -0.4577330563298960       -0.0427631889169023        0.1071394941056757
O       -1.4589846827956805       -0.1828457724012716       -0.4957689578671641       -0.8194842575378962
N       -0.5987360737988634       -0.4850919577720737        0.1972479938130151        0.3116552922920345
N       -1.0089033329885602       -1.4538320643818272        1.2686009386679458        0.0918298459672651
N       -1.3785101053313493       -0.7087476746171713        0.4345683386617168        0.5593901217632046
O       -1.0585606935450584       -0.5712692674581792        0.3550126353876647       -0.9963138680841535
N        0.8430293147798567        0.8395560285653995       -0.0102301844781442        0.9989733053171830
O        0.8311549307497912        0.9387246591260245       -0.0199136574073640       -0.8354521971080898
N        0.7844590773885629        1.7096262663312634        0.1049923223859388        0.2899344186932475
O        0.7384337161810884        1.3242215068299474        0.1132804524833372       -0.8678253524624289
N        0.4566930948713567       -0.4114078350839723        0.0373703261598630        0.9219570073558310
O        0.5672513735071003       -0.2518916976742556       -0.1451384922118881       -0.9704818863270434
O        0.8269393544016517       -0.3091348114168976        0.4747026404325195       -0.3320651923316272
N        0.6556291230228305        0.3156401966593207        0.0848459218428972        0.9769593393400061
O        1.2439265301262761       -0.6655186896510148       -0.6777068847757963       -0.1970026432733326
O        1.5137646936199132       -0.6912144625966838        0.2897181513682575       -0.1946060569702309
N        2.6601925845737480       -0.3313079567568197       -0.5083548975355425        0.1283355164991325
N        1.3546571149722579       -2.0608172968465408       -0.2607131759669822        0.1235072004109040

        RMSE         5.675696228E-01 kcal/mol

Coordinates in bohr
s                   x[bohr]                   y[bohr]                   z[bohr]                      q[e]
+       -3.3214481459986618        1.9958081881803800       -2.4395905326584764        0.0707249461841811
-       -3.1362583805367010        0.2724989924756389        0.0295101623583457       -0.3496602100029151
+       -2.6876842571428212       -0.0043608020062955       -0.8537502016292698        0.9824851761690530
+       -5.8277724840734590       -0.8649901150322642       -0.0808107153041589        0.1071394941056757
-       -2.7570814717217997       -0.3455284330361988       -0.9368675518725812       -0.8194842575378962
+       -1.1314472009117584       -0.9166909458513732        0.3727446871025987        0.3116552922920345
+       -1.9065509864099608       -2.7473444340906261        2.3973083365811410        0.0918298459672651
+       -2.6050065602522734       -1.3393389970815526        0.8212151428658514        0.5593901217632046
-       -2.0003897979748548       -1.0795424593868768        0.6708766519597043       -0.9963138680841535
+        1.5930945206663063        1.5865309609656539       -0.0193322468766022        0.9989733053171830
-        1.5706551869409724        1.7739325129619428       -0.0376313586561126       -0.8354521971080898
+        1.4824128128937115        3.2307254202551112        0.1984067345851993        0.2899344186932475
-        1.3954374853863138        2.5024159773496835        0.2140690305614464       -0.8678253524624289
+        0.8630248726945932       -0.7774481341762280        0.0706196816611732        0.9219570073558310
-        1.0719497402182039       -0.4760063218809657       -0.2742720005423624       -0.9704818863270434
-        1.5626889021820309       -0.5841801294229902        0.8970579814491456       -0.3320651923316272
+        1.2389594823872472        0.5964735258717651        0.1603355551450758        0.9769593393400061
-        2.3506804621297279       -1.2576480548139830       -1.2806804055634604       -0.1970026432733326
-        2.8606006893292149       -1.3062060282632462        0.5474879596599418       -0.1946060569702309
+        5.0270354258181946       -0.6260813014554145       -0.9606515308773520        0.1283355164991325
+        2.5599309412004048       -3.8943802856462884       -0.4926764998758902        0.1235072004109040
