25
s                      x[A]                      y[A]                      z[A]                      q[e]
N 1.4494168032844694 0.0037983778418126 -0.0773964763152931 0.1158659338886357
O 0.2459712779835241 -0.4392447356145354 0.2285453623068819 -0.2341991647481463
N -0.8527980863583169 -0.0062475161402116 0.2336884440945483 0.0569852111266852
N -0.0996794254309912 0.0317536359389931 0.3779840424000259 0.3189271149812888
O 0.1789086638585121 0.3401318355200394 0.2589377934452113 -0.2877498234141676
N -0.0258815311453719 0.1133745530565651 -0.5371824204072996 0.5692545008206258
O 0.2915743187942321 0.4963480982793587 -0.4685087314308154 -0.2058946535748549
O 0.2723346306555066 0.1693143707023836 -0.5836268327478794 -0.9992971180892700
N 0.1199111440864929 0.0200099720037531 -0.3590916298377238 0.6691943173322236
N 1.0581209967515652 0.0205865592115429 -0.3500438130199844 0.0628076875181509
N -1.0141740798869721 -0.0030862063093874 0.3272324252908058 0.7576134719858190
O -0.9943567608669059 0.0735320754770148 -0.0282261664566974 -0.9235083265987739
N -1.1048799811142305 0.0120367606894617 -0.4399759956749346 0.9955526175656415
O -1.0176256878493128 -0.0534267758109140 0.1267362080228510 -0.9936641819349231
O -0.3161916509590820 -0.1184177369039491 0.4995957360051078 -0.9934394819660318
N -0.7005975552491389 0.0547258408954407 0.6688951662088419 0.8475065253219278
N -0.0510794546366732 -0.0176184537834011 0.3985910727276803 0.9207393412409772
O -0.3149578765716440 0.2548785414283405 0.2747012351692111 -0.6738758902636315
N -0.4469750396339935 0.0228276278071162 0.3089785215058553 0.1207489421105395
N -0.1517125469925837 0.0768428540153658 -0.3354347149374410 0.4308753055723465
O -0.0861496036951864 0.2118219546047617 0.6672474056863201 -0.7095764258838037
N 0.0252827824204883 0.0080727663393505 0.4349059982301972 0.9977500474782615
O -0.1268409713701655 -0.1261976769500341 0.5752097229994563 -0.9963537733476465
O -1.0540794000888085 0.3706201275805628 0.0826691214610207 -0.1586318904925156
N -1.0466326036927283 0.2016883806250755 0.0352367690795893 0.3123697133706422
