21
s                      x[A]                      y[A]                      z[A]                      q[e]
N 1.8260987730903218 1.2486196987763001 0.9954512521354517 0.0707249461841811
O 1.6744471172418376 0.0834300376099199 -0.0882606016319852 -0.3496602100029151
N 1.4323329754282583 0.0530437793222816 0.4016734812234239 0.9824851761690530
N 3.0682742540858814 -0.5585404176068225 0.0874738835531609 0.1071394941056757
O 1.4636349130330248 -0.1149504744713630 0.4826473184070472 -0.8194842575378962
N 0.5627799360372073 -0.5555109587396653 -0.1429540166603075 0.3116552922920345
N 0.9236741700753960 -1.7174749583317204 -0.9680052082935280 0.0918298459672651
N 1.3373106361388611 -0.8293563721745650 -0.3427013059646744 0.5593901217632046
O 1.0267573014327256 -0.6701527121383849 -0.2794214677066887 -0.9963138680841535
N -0.7972902799430219 0.8608529304548507 -0.0025055689651574 0.9989733053171830
O -0.7761776991172559 0.9599118818511050 0.0086000748085501 -0.8354521971080898
N -0.6776347815579772 1.7256465875762024 -0.1125177843025081 0.2899344186932475
O -0.6530492768289704 1.3391586781735376 -0.1193138401686154 -0.8678253524624289
N -0.4881101033541216 -0.4157401704138871 -0.0350582644265160 0.9219570073558310
O -0.5935143693223482 -0.2485843485520637 0.1433942205279143 -0.9704818863270434
O -0.8259297524146521 -0.2893767001327394 -0.4890134688814288 -0.3320651923316272
N -0.6385558814653703 0.3227498407037181 -0.0901409052786891 0.9769593393400061
O -1.3100999966856635 -0.6140142092551398 0.6683521550974676 -0.1970026432733326
O -1.5555705399534916 -0.6279814387250240 -0.3059198029744861 -0.1946060569702309
N -2.6996584399854120 -0.1879658694675811 0.4588129284422322 0.1283355164991325
N -1.5041816982864964 -2.0042927997123194 0.2539849703193840 0.1235072004109040
