21
s                      x[A]                      y[A]                      z[A]                      q[e]
N 0.0271984565191016 -0.0450243346213320 0.3788074081983307 0.0707249461841811
O 0.1028048081611549 0.2923703842674946 0.3139069444516584 -0.3496602100029151
N 0.3753596305454914 -0.1822764355217215 0.3124058910728148 0.9824851761690530
N 0.0336457010611658 -0.0110070913387004 -0.1884913504090525 0.1071394941056757
O 0.2563743936134171 -0.3289978021751238 0.3210080346028980 -0.8194842575378962
N 0.1011331318646144 0.1261682519451058 0.2906848283010082 0.3116552922920345
N 0.0297640749502890 -0.0163093213716105 0.2435969480872992 0.0918298459672651
N 0.0909411480529778 0.0397428669405849 -0.5502758555222819 0.5593901217632046
O 0.0474153226095591 0.0585278311054000 -0.1987845403567869 -0.9963138680841535
N 0.2263186640735180 0.0842525704631270 -0.4262998675833647 0.9989733053171830
O 0.2005791463316104 0.0998850449867651 -0.3289609996468601 -0.8354521971080898
N 0.0344599067506496 0.0064671299408491 0.4289356775711892 0.2899344186932475
O 0.0348283587134312 -0.0024864713939497 0.0417106334445904 -0.8678253524624289
N 0.0011218927728885 0.0786092634955532 -0.3512905158974378 0.9219570073558310
O 0.1206948398162110 0.2419184635780346 -0.1782909986819024 -0.9704818863270434
O 0.2581489303297533 -0.4185797386499197 -0.1999453221352735 -0.3320651923316272
N 0.0923177418099370 0.0130189249724067 0.3959823597016035 0.9769593393400061
O 0.1996733732285257 -0.5144377957588981 -0.0956064304444770 -0.1970026432733326
O 0.2308439914601105 0.4896804246577979 -0.0748287649621871 -0.1946060569702309
N 0.0218175340267493 -0.0000566462349802 0.1847041146048667 0.1283355164991325
N 0.0371600737975828 0.0045553282255527 -0.1492128205201012 0.1235072004109040
