21
s                      x[A]                      y[A]                      z[A]                      q[e]
N        1.8260987730903218        1.2486196987763001        0.9954512521354517        0.0707249461841811
O        1.6744471172418376        0.0834300376099199       -0.0882606016319852       -0.3496602100029151
N        1.4323329754282583        0.0530437793222816        0.4016734812234238        0.9824851761690530
N        3.0682742540858814       -0.5585404176068225        0.0874738835531609        0.1071394941056757
O        1.4636349130330248       -0.1149504744713630        0.4826473184070472       -0.8194842575378962
N        0.5627799360372073       -0.5555109587396653       -0.1429540166603075        0.3116552922920345
N        0.9236741700753960       -1.7174749583317204       -0.9680052082935280        0.0918298459672651
N        1.3373106361388611       -0.8293563721745650       -0.3427013059646744        0.5593901217632046
O        1.0267573014327256       -0.6701527121383849       -0.2794214677066887       -0.9963138680841535
N       -0.7972902799430219        0.8608529304548507       -0.0025055689651574        0.9989733053171830
O       -0.7761776991172559        0.9599118818511050        0.0086000748085501       -0.8354521971080898
N       -0.6776347815579772        1.7256465875762024       -0.1125177843025081        0.2899344186932475
O       -0.6530492768289704        1.3391586781735376       -0.1193138401686154       -0.8678253524624289
N       -0.4881101033541216       -0.4157401704138871       -0.0350582644265160        0.9219570073558310
O       -0.5935143693223482       -0.2485843485520637        0.1433942205279143       -0.9704818863270434
O       -0.8259297524146519       -0.2893767001327394       -0.4890134688814288       -0.3320651923316272
N       -0.6385558814653703        0.3227498407037181       -0.0901409052786891        0.9769593393400061
O       -1.3100999966856635       -0.6140142092551398        0.6683521550974676       -0.1970026432733326
O       -1.5555705399534916       -0.6279814387250240       -0.3059198029744861       -0.1946060569702309
N       -2.6996584399854120       -0.1879658694675811        0.4588129284422321        0.1283355164991325
N       -1.5041816982864964       -2.0042927997123194        0.2539849703193840        0.1235072004109040

        RMSE         5.517230874E-01 kcal/mol

Coordinates in bohr
s                   x[bohr]                   y[bohr]                   z[bohr]                      q[e]
+        3.4508265591752676        2.3595492655388579        1.8811302377800707        0.0707249461841811
-        3.1642464631494476        0.1576599217193948       -0.1667883647525882       -0.3496602100029151
+        2.7067170440215254        0.1002382155783353        0.7590528713714985        0.9824851761690530
+        5.7981980180157207       -1.0554884192757379        0.1653016830456640        0.1071394941056757
-        2.7658691332907033       -0.2172249147423078        0.9120712469759601       -0.8194842575378962
+        1.0634999480129961       -1.0497635717084710       -0.2701439400221167        0.3116552922920345
+        1.7454912106020530       -3.2455572985790466       -1.8292647316915265        0.0918298459672651
+        2.5271508469642336       -1.5672564038132013       -0.6476116111099619        0.5593901217632046
-        1.9402900970219998       -1.2664050881743254       -0.5280300475391004       -0.9963138680841535
+       -1.5066602715819140        1.6267762728574622       -0.0047348391325943        0.9989733053171830
-       -1.4667632760196239        1.8139705612714212        0.0162517860466089       -0.8354521971080898
+       -1.2805441502290180        3.2609994398498996       -0.2126277965750783        0.2899344186932475
-       -1.2340842796350469        2.5306431402781060       -0.2254704808953322       -0.8678253524624289
+       -0.9223944144082042       -0.7856350614334121       -0.0662505181999961        0.9219570073558310
-       -1.1215796095430677       -0.4697563378387496        0.2709758047712609       -0.9704818863270434
-       -1.5607810309308836       -0.5468427103396134       -0.9241015278459948       -0.3320651923316272
+       -1.2066957317698626        0.6099088059651684       -0.1703416236775583        0.9769593393400061
-       -2.4757301906991125       -1.1603186926317675        1.2630025284937270       -0.1970026432733326
-       -2.9396022893426532       -1.1867129310612721       -0.5781046439757979       -0.1946060569702309
+       -5.1016150838531571       -0.3552040142272839        0.8670307775750992        0.1283355164991325
+       -2.8424914526875167       -3.7875644666833841        0.4799620338861710        0.1235072004109040
