25
s                      x[A]                      y[A]                      z[A]                      q[e]
N        1.8738356373812284        1.2892156130536252        0.4420406467506398        0.1158659338886357
O        1.8129721902587801       -0.1807594199805475       -0.4026138454992039       -0.2341991647481463
N        3.3020647439284838       -0.5859316657186958        0.0311552555268389        0.0569852111266852
N        2.1033002565552437       -0.4972989189947394        0.0302157006593780        0.3189271149812888
O        1.8194349796465425       -0.4172972972928473        0.3431723055222730       -0.2877498234141676
N        1.3420507587542365       -0.8710475122923208       -0.0572439553108193        0.5692545008206258
O        0.8237116828598020       -0.4709393957449452       -0.6185432490933745       -0.2058946535748549
O        1.1235395358230977       -0.6798817779968562        0.0332750964989279       -0.9992971180892700
N        0.6791226491267633       -0.3742741374690416       -0.1425247641783164        0.6691943173322236
N        0.8386358084204494       -2.0928031996804135       -0.4708743544537320        0.0628076875181509
N       -0.6145683207735740        1.6189313993619061       -0.0324542179955873        0.7576134719858190
O       -0.5838404027735895        1.2763100761081723       -0.1385298115210904       -0.9235083265987739
N       -0.6433953858638958        0.8446086855434118       -0.0407380696790815        0.9955526175656415
O       -0.6126549623506732        1.4283607421274542       -0.0134445348537349       -0.9936641819349231
O       -0.4609414092993526       -0.2034843677921816        0.0754578881041952       -0.9934394819660318
N       -0.4992560859225079        0.2100553870358215       -0.1016132370023256        0.8475065253219278
N       -0.4243049281709035       -0.4779996261781918       -0.0267391418396867        0.9207393412409772
O       -0.6934311426336739       -0.3161752745079226       -0.2678692312067635       -0.6738758902636315
N       -2.8329452211141595       -0.1428134092869444        0.1677817186634823        0.1207489421105395
N       -1.1247974617718923       -0.7411637796726237       -0.0427946446094772        0.4308753055723465
O       -1.3718190926220981       -0.4829885295377384        0.2630107159374286       -0.7095764258838037
N       -1.5356393073576524       -0.2869548934338821        0.0769420284605608        0.9977500474782615
O       -1.5102503110282790       -0.4835841050874926       -0.0618115525976556       -0.9963537733476465
O       -1.6854891277252178       -1.9425995987486002        0.4921604464234940       -0.1586318904925156
N       -1.7063791888467696       -1.8938624986542436        0.3260531227507546        0.3123697133706422

        RMSE         9.353115341E-01 kcal/mol

Coordinates in bohr
s                   x[bohr]                   y[bohr]                   z[bohr]                      q[e]
+        3.5410361587732284        2.4362644253355659        0.8353357586789590        0.1158659338886357
-        3.4260209126605168       -0.3415857983598443       -0.7608299023108872       -0.2341991647481463
+        6.2399980145548692       -1.1072503764416424        0.0588749003143819        0.0569852111266852
+        3.9746614444945969       -0.9397587593862953        0.0570993989350399        0.3189271149812888
-        3.4382338146099034       -0.7885776047772357        0.6485016712790349       -0.2877498234141676
+        2.5361083805083817       -1.6460412404938474       -0.1081753978753957        0.5692545008206258
-        1.5565894869450010       -0.8899464796465461       -1.1688773375373189       -0.2058946535748549
-        2.1231820138296693       -1.2847903581033784        0.0628808191811543       -0.9992971180892700
+        1.2833558124449747       -0.7072756156584425       -0.2693327703924804        0.6691943173322236
+        1.5847919969165694       -3.9548248818778133       -0.8898235694193071        0.0628076875181509
+       -1.1613658116445698        3.0593369606981948       -0.0613295836275649        0.7576134719858190
-       -1.1032984622190731        2.4118764950066822       -0.2617834039861533       -0.9235083265987739
+       -1.2158410696660240        1.5960790988599809       -0.0769837945732818        0.9955526175656415
-       -1.1577500882454492        2.6992106109765821       -0.0254064887577312       -0.9936641819349231
-       -0.8710530234583366       -0.3845297259391551        0.1425947425223712       -0.9934394819660318
+       -0.9434572688615814        0.3969471526747474       -0.1920211886556327        0.8475065253219278
+       -0.8018201079250636       -0.9032883815480046       -0.0505296549067785        0.9207393412409772
-       -1.3103949464409272       -0.5974846764614218       -0.5061994844177244       -0.6738758902636315
+       -5.3534905963303308       -0.2698782305952405        0.3170614971325977        0.1207489421105395
+       -2.1255591493589976       -1.4005965576904267       -0.0808701579482121        0.4308753055723465
-       -2.5923623787298311       -0.9127160425639242        0.4970182211823264       -0.7095764258838037
+       -2.9019377183937194       -0.5422661589499740        0.1453993613276414        0.9977500474782615
-       -2.8539594687309497       -0.9138415172399785       -0.1168069057989005       -0.9963537733476465
-       -3.1851128388374703       -3.6709812130591239        0.9300484535234643       -0.1586318904925156
+       -3.2245893331012776       -3.5788814417317649        0.6161511043492092        0.3123697133706422
