25
s                      x[A]                      y[A]                      z[A]                      q[e]
N 2.4340041266259744 0.1753511548025088 -0.0691192499162564 0.1158659338886357
O 1.1494009913242706 1.1393145626476886 0.4460473598336842 -0.2341991647481463
N 1.8995359094395261 2.4915917496844879 0.0129554870654338 0.0569852111266852
N 1.1817185222007729 1.5269756116912556 -0.0159491662424925 0.3189271149812888
O 1.1138390287192403 1.2396685420973630 -0.3297601278890205 -0.2877498234141676
N 0.3116059965531204 1.2269700715655953 -0.0555789210880666 0.5692545008206258
O 0.3535894179603509 0.5818431672034849 0.5324079694664294 -0.2058946535748549
O 0.3312829746115106 0.9302935258262628 -0.1197923124680591 -0.9992971180892700
N 0.2950011756645583 0.3927963080672631 0.0514584517726253 0.6691943173322236
N -0.9069848727745204 1.6585811068685929 0.1290522562447323 0.0628076875181509
N 1.0195257059569220 -1.8736221343105655 -0.0558757880001371 0.7576134719858190
O 0.7708470911670238 -1.6272762797594122 0.0414388443905555 -0.9235083265987739
N 0.4037438183382231 -1.4083795764174962 -0.0019118259026812 0.9955526175656415
O 0.8593634174832794 -1.7497707934246696 -0.0927219608753219 -0.9936641819349231
O -0.2805414977068558 -0.6371417230372524 -0.0787433136335303 -0.9934394819660318
N 0.0484007047617693 -0.9128579333154395 0.0686679632859778 0.8475065253219278
N -0.4752420456837401 -0.4396737669454891 0.0312352317017212 0.9207393412409772
O -0.4658112740275417 -0.7392449727161129 0.3011370279200382 -0.6738758902636315
N -2.9163212548266797 0.0870117208604601 -0.0928567009212359 0.1207489421105395
N -1.0938399161524690 -0.8453415946102600 0.1471194085202040 0.4308753055723465
O -1.4921230550145879 -0.2802168248121294 0.2260309857668188 -0.7095764258838037
N -1.6298038845747855 -0.1050020957284333 -0.0075911285631812 0.9977500474782615
O -1.5847315604834231 -0.3162548510747343 -0.1126401422070183 -0.9963537733476465
O -1.9066012538196691 -1.6862478293401997 0.5712872469165273 -0.1586318904925156
N -1.8960849998944513 -1.6649305988409544 0.3979065240309400 0.3123697133706422
