21
s                      x[A]                      y[A]                      z[A]                      q[e]
N       -2.0858824035823238        1.5172538123440777       -0.5405347689019626        0.0690680479201058
O       -1.8734798916451871       -0.1876398217477155        0.3579457639590992       -0.3117950550350966
N       -1.9791782128295445       -0.3621700458833172        0.0340013172926657        0.5776243102962968
N       -3.3187465364531779       -0.5596947167502462        0.0525616322030293        0.0604184539076988
O       -1.8278551278499389       -0.3800828276625366       -0.2847832442544562       -0.3968494342195521
O       -0.9128635935495634       -0.1619345565165264        0.2224527613133245       -0.9828651838991298
N       -0.7545514848981492       -0.0070126397647999        0.2102222700669209        0.7759263489545838
N       -1.0055298336736442       -1.3463452757602534        0.3362185254186284        0.9970342621901004
O       -0.9956743071243720       -1.4248259599511055        0.0671144171787237       -0.3970377457969525
O       -1.0634534632464125       -1.2954126782013120        0.5993663146972160       -0.3893757401670396
N        1.7846906118721633       -1.2391995927137578       -0.2433105361587991        0.1691966627363242
O        1.4688652407616436       -0.9298723087939688       -0.1561869658852393       -0.6800109224217911
O        0.3492315747195063        0.4230058060278407       -0.2873066492726062       -0.9821368279659007
N        0.2039947452637914        0.5015223687859222       -0.1487484752062954        0.8921713087406896
O        0.5964568843856087        0.4700729525022215        0.3667789143858613       -0.3335771210350215
N        0.7772601681872896       -0.1058558907886685       -0.0829622264116555        0.9988617281482304
N        2.2651688712017535        1.7098346282883363       -0.0631235061878891        0.0655379221577991
N        1.0737794427652481        1.0993031324837210        0.0399455942733146        0.9908754307264420
O        0.9030103759042649        1.1007981832351688       -0.2952431299437307       -0.6595771554465193
O        1.0465792859793093        1.0985953705547069        0.4122202102260307       -0.5578053818499882
N       -0.1724440672457002        2.2400140843475480        0.2339004944751562        0.0943160920587207

        RMSE         4.505455440E-01 kcal/mol

Coordinates in bohr
s                   x[bohr]                   y[bohr]                   z[bohr]                      q[e]
+       -3.9417464726822864        2.8671941681370927       -1.0214626745123483        0.0690680479201058
-       -3.5403638967618112       -0.3545878733329079        0.6764194616504708       -0.3117950550350966
+       -3.7401047757209240       -0.6844021975639649        0.0642531775879315        0.5776243102962968
+       -6.2715220337082505       -1.0576697285236594        0.0993270895707699        0.0604184539076988
-       -3.4541455886500882       -0.7182524492717808       -0.5381623367602838       -0.3968494342195521
-       -1.7250621817099261       -0.3060119620637071        0.4203747947340238       -0.9828651838991298
+       -1.4258956540150303       -0.0132519685719668        0.3972625158985115        0.7759263489545838
+       -1.9001759966203502       -2.5442238414908749        0.6353609313464890        0.9970342621901004
-       -1.8815517506200472       -2.6925308407501332        0.1268278675375099       -0.3970377457969525
-       -2.0096357927053519       -2.4479751812463135        1.1326381836027073       -0.3893757401670396
+        3.3725764751141436       -2.3417478450078884       -0.4597902767784342        0.1691966627363242
-        2.7757530202441805       -1.7572039952677518       -0.2951505898893273       -0.6800109224217911
-        0.6599520305822286        0.7993651228711569       -0.5429308811481933       -0.9821368279659007
+        0.3854941995811011        0.9477399227962527       -0.2810938797193524        0.8921713087406896
-        1.1271401571326642        0.8883091392145447        0.6931116967820221       -0.3335771210350215
+        1.4688088461012667       -0.2000386423569576       -0.1567758866762528        0.9988617281482304
+        4.2805487944837717        3.2311191672889437       -0.1192861387737529        0.0655379221577991
+        2.0291490659730380        2.0773818492521157        0.0754862330952212        0.9908754307264420
-        1.7064422989057835        2.0802070857160118       -0.5579286560166083       -0.6595771554465193
-        1.9777482190781006        2.0760443730442533        0.7789833007058483       -0.5578053818499882
+       -0.3258720590544062        4.2330131365850567        0.4420078751672070        0.0943160920587207
