10

C         -1.655093       -0.736629        -0.182553
C         -0.520098       -0.091073        0.100032
C         0.833955       -0.623987        0.247069
C         1.943915       -0.018800        -0.209507
H         -2.581670       -0.201093        -0.347104
H         -1.670213       -1.818993        -0.234229
F         -0.564946       1.333069        0.107856
H         0.890328       -1.630143        0.658110
H         1.915800       0.973071        -0.649269
H         2.914200       -0.497530        -0.128459
