10

C         -0.868006       -1.332363        0.056161
C         -0.462769       -0.060154        0.030217
C         0.864837       0.543086        0.130639
C         2.027711       -0.091799        -0.098387
H         -1.914920       -1.589054        -0.044678
H         -0.153644       -2.135727        0.189178
F         -1.468120       0.943123        -0.097042
H         0.862017       1.593254        0.411931
H         2.072744       -1.129575        -0.417044
H         2.976244       0.420382        0.022214
