10

C         -0.856191       -1.338411        0.000066
C         -0.462715       -0.062045        0.000073
C         0.860230       0.560080        0.000095
C         2.038078       -0.088754        -0.000098
H         -1.906721       -1.599647        0.000128
H         -0.129884       -2.142150        -0.000123
F         -1.485113       0.931548        -0.000120
H         0.839464       1.646657        0.000518
H         2.112401       -1.172741        -0.000243
H         2.974351       0.458733        -0.000016
