25
s                      x[A]                      y[A]                      z[A]                      q[e]
N -1.6640671038332477 0.5661844716939619 -1.4969416160118187 0.1158659338886357
O -1.8476200652328265 0.2402620852357815 0.1473985629563773 -0.2341991647481463
N -3.3500228877577181 -0.2846539470579407 -0.0158404450101408 0.0569852111266852
N -2.1315903649720584 -0.3111764452771063 0.0850338238423048 0.3189271149812888
O -1.8595200405900867 -0.4792156647792797 -0.1975383272650335 -0.2877498234141676
N -1.4659457711986827 -0.4407426114416991 0.4673883552243883 0.5692545008206258
O -0.7638675659209456 -0.2157055064111674 0.9235025822000462 -0.2058946535748549
O -1.1914962989943541 -0.3528984361663136 0.3724937961003977 -0.9992971180892700
N -0.7078570804588770 -0.1142017500400866 0.4305379164197994 0.6691943173322236
N -1.1290461892422152 -1.0570931456296424 1.7595843838257310 0.0628076875181509
N 0.9180728877284999 1.5443764994684959 0.0428303882514556 0.7576134719858190
O 0.8357730723724469 1.2220136952937968 0.1314495368480030 -0.9235083265987739
N 0.7936768121208360 0.7833768958335805 0.0663306741280247 0.9955526175656415
O 0.8660956041856422 1.3608497341768691 0.0051123000233600 -0.9936641819349231
O 0.4075576880355063 -0.1954906929457325 0.0077646440627182 -0.9934394819660318
N 0.5429749671269239 0.1951867282786885 0.1565624527660243 0.8475065253219278
N 0.3338224503540648 -0.4511485198098200 0.1153013588166497 0.9207393412409772
O 0.6608698551500740 -0.3491355680635854 0.3026469633457380 -0.6738758902636315
N 2.6874767084278623 -0.5961238759787055 -0.5000988411995926 0.1207489421105395
N 0.9612127235328287 -0.8431505947884279 0.0121147842412955 0.4308753055723465
O 1.1913240487914356 -0.6363716584740200 -0.3302787145350209 -0.7095764258838037
N 1.4128388876109579 -0.4858337655324831 -0.1776465544567138 0.9977500474782615
O 1.3681781952126957 -0.6645820782225760 -0.0450261614096093 -0.9963537733476465
O 1.1711124024047526 -2.1275731813369010 -0.5703266431036914 -0.1586318904925156
N 1.2415831141920279 -2.0763532668337583 -0.4184294826137026 0.3123697133706422
