25
s                      x[A]                      y[A]                      z[A]                      q[e]
N 0.0812377713602381 -0.0105107211926762 0.2385765513286731 0.1158659338886357
O -0.1694791231610719 0.4576000001071686 0.2932068269616995 -0.2341991647481463
N -0.0780738553728966 -0.0046925070919305 -0.3910652665756679 0.0569852111266852
N -0.5206765814202722 -0.0419844196461191 0.1679522956863118 0.3189271149812888
O -0.2228611643184810 -0.3372446294684311 0.2469070112757548 -0.2877498234141676
N -0.0026759494187109 0.1243041360686009 -0.5529765550238676 0.5692545008206258
O -0.1419176963835969 -0.4847786096507490 0.0480439419521317 -0.2058946535748549
O -0.0367093392700410 0.1506797811869389 -0.2526598172382379 -0.9992971180892700
N -0.1959115155540169 -0.0182943375838483 0.2375998443993318 0.6691943173322236
N 0.0180008344085202 -0.0374969700781235 0.4126309538376927 0.0628076875181509
N 0.0578142006438065 0.0046832534213958 0.2637741753426306 0.7576134719858190
O 0.0268654862471090 -0.0707362341939096 -0.0707381093137468 -0.9235083265987739
N 0.0970957076233156 -0.0109602250094030 -0.5065240062645768 0.9955526175656415
O 0.0573546632097350 0.0483761833531846 0.0743089213729189 -0.9936641819349231
O -0.0437828211362211 0.1110995587930977 -0.1261321600646297 -0.9934394819660318
N -0.0364996110692171 -0.0543903556352851 0.2808905885374584 0.8475065253219278
N -0.0856180210442201 0.0173248992390954 -0.3941211225370860 0.9207393412409772
O 0.1547336941195274 -0.2421675837444933 -0.2287133623291364 -0.6738758902636315
N -0.0677683943517368 0.0209024027744319 0.2144454206089395 0.1207489421105395
N 0.2703215895903395 0.0768902851341971 -0.4877403880341464 0.4308753055723465
O 0.3541407290151312 -0.2038753397714373 -0.1312476472142055 -0.7095764258838037
N 0.4518425192482702 -0.0067869675911528 0.0847097352834806 0.9977500474782615
O 0.3129096361631661 0.1187240096040819 -0.0436583058645167 -0.9963537733476465
O -0.0233237212895768 -0.3626565420762259 -0.1395192618321219 -0.1586318904925156
N -0.0406118634413502 -0.2005197642313592 -0.0756824884373121 0.3123697133706422
