21
s                      x[A]                      y[A]                      z[A]                      q[e]
N       -1.9799507250221899        1.4262405173291237        0.0445179008678669        0.0707249461841811
O       -1.6331970976272756       -0.0943960067719209        0.2909145782730353       -0.3496602100029151
N       -1.4837270028058778        0.1303931812180001       -0.1809358662524566        0.9824851761690530
N       -3.0361645113416258       -0.6991399191609563        0.0127401346988800        0.1071394941056757
O       -1.5456745734185002        0.0332901730060718       -0.3321614452477800       -0.8194842575378962
N       -0.4832261686215782       -0.6544735228691769       -0.1220883099909859        0.3116552922920345
N       -0.7282690957508717       -2.0190248960389159       -0.0156809011980087        0.0918298459672651
N       -1.2444412952535853       -1.0126581174736755       -0.0354201162541808        0.5593901217632046
O       -0.9434605068671448       -0.8189850348769588       -0.0636135968881497       -0.9963138680841535
N        0.7175106390146404        0.8898819438830946       -0.0820796097407070        0.9989733053171830
O        0.6928051165467070        0.9831939070982217       -0.0999845919664386       -0.8354521971080898
N        0.5008356135342947        1.7364144243772826       -0.0066593652716224        0.2899344186932475
O        0.5150039373538766        1.3485791885702123        0.0017308174812818       -0.8678253524624289
N        0.5301771954858268       -0.4056090977251379       -0.0741153840269542        0.9219570073558310
O        0.6500396166304331       -0.2285531205278217       -0.2449787766801577       -0.9704818863270434
O        0.7866707124397384       -0.2464382553345369        0.4150837539723137       -0.3320651923316272
N        0.5994961090900626        0.3451968327923467       -0.0103880807354973        0.9769593393400061
O        1.5154580909178790       -0.5431987973581233       -0.5155910756805659       -0.1970026432733326
O        1.5220067610955630       -0.5033102605866795        0.4887971641909344       -0.1946060569702309
N        2.7716018338957684        0.0269053211062456        0.0000941558903597        0.1283355164991325
N        1.7313120309921743       -1.8841805005709067        0.0049972006233548        0.1235072004109040

        RMSE         5.596187772E-01 kcal/mol

Coordinates in bohr
s                   x[bohr]                   y[bohr]                   z[bohr]                      q[e]
+       -3.7415646121936006        2.6952039667833332        0.0841266403205498        0.0707249461841811
-       -3.0862952234081620       -0.1783826001357930        0.5497488788391011       -0.3496602100029151
+       -2.8038376802495075        0.2464074011292118       -0.3419192334896106        0.9824851761690530
+       -5.7375193982701704       -1.3211829705889331        0.0240753653823253        0.1071394941056757
-       -2.9209016228448239        0.0629093096505848       -0.6276941609545599       -0.8194842575378962
+       -0.9131651153490861       -1.2367757145863050       -0.2307134690029600        0.3116552922920345
+       -1.3762291366039709       -3.8154040939945149       -0.0296326086646000        0.0918298459672651
+       -2.3516532272392787       -1.9136465007469470       -0.0669343190522789        0.5593901217632046
-       -1.7828819681645283       -1.5476574167659798       -0.1202122759738793       -0.9963138680841535
+        1.3558985998399069        1.6816331579290809       -0.1551079828943968        0.9989733053171830
-        1.3092119285891677        1.8579672126344664       -0.1889434955822199       -0.8354521971080898
+        0.9464421434554570        3.2813477023675670       -0.0125843765327514        0.2899344186932475
-        0.9732163951312673        2.5484453248898493        0.0032707710127773       -0.8678253524624289
+        1.0018896974315290       -0.7664901086945705       -0.1400577774940752        0.9219570073558310
-        1.2283968461291204       -0.4319028029163365       -0.4629427944751929       -0.9704818863270434
-        1.4865921974298961       -0.4657008094179214        0.7843946141345907       -0.3320651923316272
+        1.1328834594578074        0.6523274733529951       -0.0196306275592344        0.9769593393400061
-        2.8638007464439603       -1.0264969586849182       -0.9743259257664697       -0.1970026432733326
-        2.8761759395657367       -0.9511185486416357        0.9236927712213083       -0.1946060569702309
+        5.2375683948796619        0.0508436882083042        0.0001779288458785        0.1283355164991325
+        3.2717055762853651       -3.5605851170070508        0.0094433405721077        0.1235072004109040
