21
s                      x[A]                      y[A]                      z[A]                      q[e]
N -1.9480029028374088 1.4008824593223770 0.4040309750770597 0.0707249461841811
O -1.5921735918345794 -0.1386674676320948 0.3462171493763825 -0.3496602100029151
N -1.5082358329860674 0.1713991235283377 -0.0969432612966127 0.9824851761690530
N -3.0369086499749258 -0.6823518052542368 0.0909283076623775 0.1071394941056757
O -1.5757962018523946 0.0875134592553387 -0.2523698832178908 -0.8194842575378962
N -0.4833418853288541 -0.6411418033298754 -0.2338667155482312 0.3116552922920345
N -0.7581436479623530 -1.9819840899293575 -0.3520179453218515 0.0918298459672651
N -1.2527103919319293 -0.9883669786935632 -0.1859618714847671 0.5593901217632046
O -0.9522288027777176 -0.7999765842829720 -0.1896212251375700 -0.9963138680841535
N 0.7348763827190423 0.8834509522856324 -0.1295788426876697 0.9989733053171830
O 0.7082011093190450 0.9803316433015695 -0.1464404482395844 -0.8354521971080898
N 0.5240755643400520 1.7350198215829753 -0.0611561050274711 0.2899344186932475
O 0.5309495223619086 1.3478531471979665 -0.0523100618825506 -0.8678253524624289
N 0.5328090890810844 -0.4071492582836546 -0.1354987616099824 0.9219570073558310
O 0.6572119844088581 -0.2318420326097253 -0.2926220053188320 -0.9704818863270434
O 0.7620967665136132 -0.2518146405140255 0.3738768238518018 -0.3320651923316272
N 0.6072114821343213 0.3415588582126808 -0.0652423299066258 0.9769593393400061
O 1.5647128709138047 -0.5585778933525656 -0.4378618783187824 -0.1970026432733326
O 1.4535889343677653 -0.5114807989645154 0.5596801277257442 -0.1946060569702309
N 2.7570099747140886 -0.0019388774339462 0.2092518708448535 0.1283355164991325
N 1.6981714971344501 -1.9057302898332273 0.1126189851437353 0.1235072004109040
