21
s                      x[A]                      y[A]                      z[A]                      q[e]
N 0.0260324990301888 -0.0469090310943910 0.3770903894474154 0.0707249461841811
O 0.1075335976873681 0.2850966266185849 0.3135765782771244 -0.3496602100029151
N 0.3697922290810591 -0.1739739896568995 0.3143374310198579 0.9824851761690530
N 0.0343917690138825 -0.0140399066719191 -0.1892765181200270 0.1071394941056757
O 0.2616748613119679 -0.3351855793110609 0.3209489980752259 -0.8194842575378962
N 0.0945507915332976 0.1226092826754147 0.2876192732037899 0.3116552922920345
N 0.0290513224186113 -0.0135771113758678 0.2446573972231188 0.0918298459672651
N 0.0825547419182656 0.0356110775870443 -0.5528729824685126 0.5593901217632046
O 0.0552674495864736 0.0632642597958832 -0.1941910687056350 -0.9963138680841535
N 0.2191740896468104 0.0811301923002848 -0.4236256931219481 0.9989733053171830
O 0.2051580303669918 0.1022988016021930 -0.3333236358886679 -0.8354521971080898
N 0.0298335005665621 0.0046632509370791 0.4299248338581673 0.2899344186932475
O 0.0397787375414473 0.0001731599129823 0.0372604186429662 -0.8678253524624289
N -0.0049717358154566 0.0748458768113707 -0.3460890446774731 0.9219570073558310
O 0.1253884563287403 0.2448236815344531 -0.1826003215467998 -0.9704818863270434
O 0.2627414911359902 -0.4160139221156539 -0.2030290884887563 -0.3320651923316272
N 0.0854121977395945 0.0098945530840095 0.3998725985932129 0.9769593393400061
O 0.1971738003379992 -0.5156880991207885 -0.0953972618868743 -0.1970026432733326
O 0.2280263956314168 0.4887494832338106 -0.0735829809485676 -0.1946060569702309
N 0.0228777206882059 0.0000610324268301 0.1838510191710027 0.1283355164991325
N 0.0377044370926185 0.0051562383157354 -0.1477535304702737 0.1235072004109040
