21
s                      x[A]                      y[A]                      z[A]                      q[e]
N 1.7811827822687540 0.9036029853659603 -1.5213559007804662 0.0707249461841811
O 1.6223299874865189 -0.1236358836404997 -0.3488210238648971 -0.3496602100029151
N 1.5086882883670141 0.3813918703900783 -0.2413104139466054 0.9824851761690530
N 3.1358868356983320 -0.1860353904762122 0.0883714140337329 0.1071394941056757
O 1.5845232224974934 0.4540864748271543 -0.0779494274099505 -0.8194842575378962
N 0.6859471462966565 -0.0895082693376278 0.2493050030585079 0.3116552922920345
N 1.0401498046177677 -1.0201401997684574 1.5062924843154490 0.0918298459672651
N 1.4572407913945482 -0.2696363616923442 0.5439230746636589 0.5593901217632046
O 1.1199543857382992 -0.2250378432362878 0.4238778216101156 -0.9963138680841535
N -1.1252414671176301 -0.6267170332600748 -0.2435526065552703 0.9989733053171830
O -1.1542821094443083 -0.7087875263796695 -0.2784824896131242 -0.8354521971080898
N -1.4273701644018721 -1.4489995764791650 -0.2966112844242468 0.2899344186932475
O -1.2359882708609422 -1.1148600337332140 -0.2189701327686845 -0.8678253524624289
N -0.2841285923338389 0.3326496991124478 0.0537033360462279 0.9219570073558310
O -0.4286361502930143 0.2760791005423282 -0.1665967535028737 -0.9704818863270434
O -0.7073583786580535 0.3303353800625284 0.4460693094020330 -0.3320651923316272
N -0.7566323484983620 -0.2469600040079344 -0.0444775968737738 0.9769593393400061
O -0.9141622242674079 1.0643430553060749 -0.4379820976439713 -0.1970026432733326
O -1.1771297043871136 0.9117652002637389 0.5200840299723426 -0.1946060569702309
N -2.3553083818742988 1.2468799168361093 -0.2383747597855068 0.1283355164991325
N -0.4904104643530168 2.2120149331919263 0.3546475702150011 0.1235072004109040
