25
s                      x[A]                      y[A]                      z[A]                      q[e]
N 1.5392893578922322 1.1284518507145564 -1.4179534227270338 0.1158659338886357
O 1.9096704437480354 0.1433923298648237 -0.1050643255435141 -0.2341991647481463
N 3.2457455517064462 0.9048850515349035 0.2559860859416310 0.0569852111266852
N 2.0853628714030563 0.5348998649945752 0.2587890244150938 0.3189271149812888
O 1.7066061405034780 0.8306853261425942 0.2440658606890068 -0.2877498234141676
N 1.4389041972463352 -0.0213014186300862 0.7373128021086440 0.5692545008206258
O 0.9067132238461564 0.4361353071879237 0.2157955916864640 -0.2058946535748549
O 1.1480967919953000 -0.0629048069907607 0.6776677456516618 -0.9992971180892700
N 0.6554855993595052 0.0901219622912795 0.5125934176766258 0.6691943173322236
N 1.2131442854094596 -0.5243365777926566 1.8430114780486901 0.0628076875181509
N -1.5804824868306178 0.7275399111168143 0.7750827660981953 0.7576134719858190
O -1.3249356239921621 0.6017044091322400 0.5767532276448704 -0.9235083265987739
N -1.1043619256577262 0.2740085316907372 0.3683531562574964 0.9955526175656415
O -1.4609942414438810 0.5861902203984052 0.7129684344486912 -0.9936641819349231
O -0.3343617626825969 -0.3538424341689814 0.0144701425607040 -0.9934394819660318
N -0.5862272386394602 -0.0122047501176405 0.1052873801405141 0.8475065253219278
N -0.1159332703610084 -0.4342764042603842 -0.1506304166325766 0.9207393412409772
O -0.3684662070706153 -0.2316288737809503 -0.3812807222223874 -0.6738758902636315
N -2.1628924000963350 -1.1976762927775848 -1.2206016186423627 0.1207489421105395
N -0.4710926257252023 -0.8207213792367843 -0.6755358299112537 0.4308753055723465
O -0.8687771263245764 -0.9706002169490375 -0.4897260323426603 -0.7095764258838037
N -1.0729875406229255 -0.7744263417182148 -0.6117590237095081 0.9977500474782615
O -0.9100775428736688 -0.7854933662300664 -0.7674629237651472 -0.9963537733476465
O -0.2024944834245540 -2.1033502033523526 -1.2354921243253860 -0.1586318904925156
N -0.2358083407615809 -1.9576280897913800 -1.3297257780604852 0.3123697133706422
