25
s                      x[A]                      y[A]                      z[A]                      q[e]
N -1.7119236446949420 0.6194668491461689 -1.5280069863551611 0.1158659338886357
O -1.8716873307086290 0.3954590569908391 0.1299994793121461 -0.2341991647481463
N -3.3774684905373973 -0.0716315231392415 0.0572728606533831 0.0569852111266852
N -2.1620337396462821 -0.0829498628516829 0.1355128659567533 0.3189271149812888
O -1.8773542750684091 -0.3502207291954487 -0.1469634634706707 -0.2877498234141676
N -1.4167380911887908 -0.2047965682260359 0.7514877254533987 0.5692545008206258
O -0.9998009559637733 -0.2440254361990927 -0.0144767303450270 -0.2058946535748549
O -1.1221876486465496 -0.1983912164867703 0.6988436742480834 -0.9992971180892700
N -0.6800945326222710 -0.2884033011567868 0.3930158160383140 0.6691943173322236
N -1.1190241710160429 -0.7226228027840729 1.8329460928059644 0.0628076875181509
N 1.2916311136136081 -1.3835734154147445 -0.2303263672013643 0.7576134719858190
O 1.0891690530271154 -1.0997660569110355 -0.2396662010754376 -0.9235083265987739
N 0.9746621920547243 -0.6884327381067570 -0.1155592348824390 0.9955526175656415
O 1.2180889234293288 -1.2181428267428571 -0.1559875096050319 -0.9936641819349231
O 0.4147312003973182 0.1496780156603063 0.2075267786514414 -0.9934394819660318
N 0.5642906449896454 -0.1970025954819513 -0.0127796944942214 0.8475065253219278
N 0.2353866803107884 0.3691045735309609 0.1835504123298436 0.9207393412409772
O 0.4341900202462993 0.3475269205547194 -0.1591893397701977 -0.6738758902636315
N 2.4609459731842649 1.1971010282024510 -0.3424630927195150 0.1207489421105395
N 0.7055613487727057 0.9249299532657910 0.0376411252877187 0.4308753055723465
O 1.1171655502967013 0.8019975372368376 0.2095086962952745 -0.7095764258838037
N 1.2711743847747747 0.7173422703537045 -0.0472711566379080 0.9977500474782615
O 1.1214428462789747 0.8721231158999290 -0.1206835451244674 -0.9963537733476465
O 0.8136138041354298 2.2294696061354466 0.6009186970263034 -0.1586318904925156
N 0.8115627893057835 2.1952607341716055 0.4264151429664908 0.3123697133706422
