21
s                      x[A]                      y[A]                      z[A]                      q[e]
N        1.9729460347543941        1.4340851730985436       -0.0772364472333261        0.0707249461841811
O        1.6270609771220457       -0.1057263118094265       -0.3323434683430241       -0.3496602100029151
N        1.4668775626003634        0.1820158337505113        0.1570936830758510        0.9824851761690530
N        3.0233966624262245       -0.6803468799882675       -0.1294958696376891        0.1071394941056757
O        1.5886463679827088       -0.0099903403056805        0.2870196708178028       -0.8194842575378962
N        0.4778422243721664       -0.6418027741379631        0.1275862715951570        0.3116552922920345
N        0.7300038129083307       -2.0106478254683915       -0.0255769737376003        0.0918298459672651
N        1.2221992372278152       -0.9823517956286153       -0.0013044037189112        0.5593901217632046
O        0.9850629932631140       -0.8608640151474277        0.0289115760474778       -0.9963138680841535
N       -0.7477097287443005        0.9369827455231934       -0.0591549067880889        0.9989733053171830
O       -0.6753181042344645        0.9464646939927746       -0.0695205353729351       -0.8354521971080898
N       -0.5083770337096033        1.7490474886644152        0.1354462800642523        0.2899344186932475
O       -0.4848776510552804        1.3012853514820604        0.1050067103714324       -0.8678253524624289
N       -0.5496086532604764       -0.3751276027739959        0.1351960995174358        0.9219570073558310
O       -0.6094829433480030       -0.2746979821347110        0.2973688389836107       -0.9704818863270434
O       -0.7938669830414551       -0.2543225943063132       -0.3509183138056911       -0.3320651923316272
N       -0.6231254629272278        0.3812080184528284        0.0909934557771424        0.9769593393400061
O       -1.4885919144178523       -0.5672176645087732        0.6078624176119904       -0.1970026432733326
O       -1.5368818366302992       -0.5070095346817031       -0.3930566925105812       -0.1946060569702309
N       -2.7751566174670508        0.0168274322847870       -0.0491082683187074        0.1283355164991325
N       -1.7299256179112676       -1.8730494139248315        0.2228980776776226        0.1235072004109040

        RMSE         8.217555685E+00 kcal/mol

Coordinates in bohr
s                   x[bohr]                   y[bohr]                   z[bohr]                      q[e]
+        3.7283276659938069        2.7100282177360295       -0.1459557321743614        0.0707249461841811
-        3.0746996361804713       -0.1997937735745737       -0.6280381347530792       -0.3496602100029151
+        2.7719968528938077        0.3439600762853298        0.2968640370528280        0.9824851761690530
+        5.7133916606088384       -1.2856692734875508       -0.2447117279932223        0.1071394941056757
-        3.0021065456906153       -0.0188790070778588        0.5423885704647077       -0.8194842575378962
+        0.9029909352429643       -1.2128314696798186        0.2411031106831261        0.3116552922920345
+        1.3795072769367012       -3.7995737248825909       -0.0483334754820921        0.0918298459672651
+        2.3096218291040320       -1.8563758525898035       -0.0024649657857708        0.5593901217632046
-        1.8614992735909950       -1.6267972198906178        0.0546349605850796       -0.9963138680841535
+       -1.4129666086670907        1.7706407733183824       -0.1117865728064742        0.9989733053171830
-       -1.2761662645665204        1.7885590590615947       -0.1313747719500506       -0.8354521971080898
+       -0.9606933621837924        3.3052207339955499        0.2559563740334954        0.2899344186932475
-       -0.9162859648497879        2.4590729253712222        0.1984339239372793       -0.8678253524624289
+       -1.0386098308440150       -0.7088884313423864        0.2554836013180949        0.9219570073558310
-       -1.1517558410656548       -0.5191039534505112        0.5619456639243915       -0.9704818863270434
-       -1.5001911779918242       -0.4806000507548522       -0.6631395055002228       -0.3320651923316272
+       -1.1775364667315857        0.7203787517043198        0.1719527106277576        0.9769593393400061
-       -2.8130310308206989       -1.0718860394434022        1.1486934912453350       -0.1970026432733326
-       -2.9042857584218860       -0.9581091635442310       -0.7427695006232896       -0.1946060569702309
+       -5.2442859622646623        0.0317992384129346       -0.0928011776178543        0.1283355164991325
+       -3.2690856352656992       -3.5395504117672276        0.4212163207017317        0.1235072004109040
