21
s                      x[A]                      y[A]                      z[A]                      q[e]
N 0.0267082316201051 -0.0461852284316495 0.3750997818062566 0.0707249461841811
O 0.1066118096137566 0.2868089003686782 0.3044346737931450 -0.3496602100029151
N 0.3721235366316679 -0.1759246413019642 0.3264549042498821 0.9824851761690530
N 0.0390508803501856 -0.0133877584486021 -0.1886186931602021 0.1071394941056757
O 0.2595229985713114 -0.3322369245524361 0.3134637187240420 -0.8194842575378962
N 0.0908250835053425 0.1263173606712885 0.2906612862379763 0.3116552922920345
N 0.0302136477478257 -0.0127625944250553 0.2475997981589808 0.0918298459672651
N 0.0772508948107728 0.0394864408686174 -0.5501127323691505 0.5593901217632046
O 0.0608947016536573 0.0587742676709366 -0.1978534530354768 -0.9963138680841535
N 0.2225219507550500 0.0847889101171720 -0.4259892607350342 0.9989733053171830
O 0.2017722261173604 0.0995889995426595 -0.3337274558861760 -0.8354521971080898
N 0.0316676187059407 0.0061707820814143 0.4287507581730338 0.2899344186932475
O 0.0370808322814389 -0.0026969614069950 0.0374079689282953 -0.8678253524624289
N -0.0009265276334724 0.0793785025379362 -0.3430608740491862 0.9219570073558310
O 0.1212612337616782 0.2406580950223746 -0.1863303039629411 -0.9704818863270434
O 0.2591499991914448 -0.4192874268516881 -0.2046139438916362 -0.3320651923316272
N 0.0890177592671840 0.0138692303511498 0.3992858870093995 0.9769593393400061
O 0.1962030504060352 -0.5133556322820705 -0.1004394358269656 -0.1970026432733326
O 0.2285737087329809 0.4906207574487496 -0.0737861744076261 -0.1946060569702309
N 0.0225661791719735 -0.0005737899654482 0.1842163436082739 0.1283355164991325
N 0.0357547055145069 0.0039539758088476 -0.1439349130984576 0.1235072004109040
