21
s                      x[A]                      y[A]                      z[A]                      q[e]
N -1.8234224352156692 1.1525036990645736 -1.2930939168102928 0.0707249461841811
O -1.6931856936180631 0.2922802923243610 0.0365921306645986 -0.3496602100029151
N -1.4710458677973737 0.1267160236034753 -0.4198572849640446 0.9824851761690530
N -3.1295349888283064 -0.2531925801134646 0.0981930045533589 0.1071394941056757
O -1.5306643929447996 -0.0474765682936033 -0.4780273318545875 -0.8194842575378962
N -0.6155860334593923 -0.1869155589089285 0.4447357460506864 0.3116552922920345
N -0.9947069586803029 -1.3090249844859063 1.2927735796516122 0.0918298459672651
N -1.4239248559953852 -0.4135760409973804 0.5439234037396667 0.5593901217632046
O -1.0841238564358158 -0.3388835352240017 0.4832401649200411 -0.9963138680841535
N 1.2152426564238203 -0.5838394314250482 -0.0795739123879524 0.9989733053171830
O 1.2553429080199492 -0.6707519717831283 -0.0794534800690157 -0.8354521971080898
N 1.5355531399908493 -1.3758655343892436 -0.2876184566113674 0.2899344186932475
O 1.3137941952734495 -1.0598605838344402 -0.2226495401025979 -0.8678253524624289
N 0.3041207879254424 0.3072178628393352 0.1953547413419291 0.9219570073558310
O 0.5286004412789919 0.2462682425267924 0.3021229791296310 -0.9704818863270434
O 0.4663006373806532 0.3813215394672286 -0.3557182147630616 -0.3320651923316272
N 0.7833636482680685 -0.2273771928758218 -0.0237218670812643 0.9769593393400061
O 1.0806282762265413 0.9701941078674128 0.5755157682201247 -0.1970026432733326
O 0.8790140156504130 1.0694631338159841 -0.4038841487807407 -0.1946060569702309
N 2.2715112576022500 1.3744565042467078 -0.1857641362988443 0.1283355164991325
N 0.3364218551300472 2.1992639001891221 0.3786045518601436 0.1235072004109040
