21
s                      x[A]                      y[A]                      z[A]                      q[e]
N -1.9823814339200145 1.4201428036180164 -0.1314946511909738 0.0707249461841811
O -1.6427214892369055 -0.0807475014288574 0.2619976034479551 -0.3496602100029151
N -1.4842558773977381 0.1215924018608857 -0.2212468494983317 0.9824851761690530
N -3.0372870109973698 -0.7008754165927270 -0.0306155179543399 0.1071394941056757
O -1.5270426003741637 0.0027804518205919 -0.3620007474134428 -0.8194842575378962
N -0.4807171731666533 -0.6565628182174822 -0.0722729887161137 0.3116552922920345
N -0.7303170900646985 -2.0143853068534274 0.1484447848174699 0.0918298459672651
N -1.2378351523583948 -1.0177844319893490 0.0329857723083051 0.5593901217632046
O -0.9420101681451201 -0.8238900006446412 0.0067933076533280 -0.9963138680841535
N 0.7145590871452452 0.8877906252460970 -0.0610185094125258 0.9989733053171830
O 0.6852109216406810 0.9842006647527359 -0.0760365555012649 -0.8354521971080898
N 0.4962040112030085 1.7362236320423916 0.0212656871466305 0.2899344186932475
O 0.5097188254564665 1.3492356799485195 0.0302774717891249 -0.8678253524624289
N 0.5326093860306708 -0.4044032608029089 -0.0496564369129286 0.9219570073558310
O 0.6423270434148370 -0.2276719351026377 -0.2158626089624917 -0.9704818863270434
O 0.7964717441471187 -0.2440703733685131 0.4410931843204988 -0.3320651923316272
N 0.6003747714828825 0.3455616983223311 0.0135570000606973 0.9769593393400061
O 1.4933015967437151 -0.5344421250279793 -0.5505222276232205 -0.1970026432733326
O 1.5515005705368741 -0.5010306914974908 0.4520510988499525 -0.1946060569702309
N 2.7705356592209132 0.0319897931441738 -0.1056809020399845 0.1283355164991325
N 1.7352765994907662 -1.8859352958579578 -0.0498803600177196 0.1235072004109040
