21
s                      x[A]                      y[A]                      z[A]                      q[e]
N 0.0244519186386483 0.1303150917654630 0.3719987717181522 0.0707249461841811
O 0.1108926953545581 0.2621156082834089 0.2914916529217881 -0.3496602100029151
N 0.3652727238293024 -0.2209524973786790 0.3304017326884834 0.9824851761690530
N 0.0396492686193352 0.0317948234917684 -0.1906260765753296 0.1071394941056757
O 0.2408404446025337 -0.3617930174032400 0.3513588011709535 -0.8194842575378962
N 0.1038673950588936 0.0721670965743002 0.2896370600569139 0.3116552922920345
N 0.0284661975843103 0.1476910165707128 0.2402621498857666 0.0918298459672651
N 0.0977691394739996 -0.0329776245049261 -0.5492285396381306 0.5593901217632046
O 0.0526980142196973 -0.0068175736736688 -0.1984041356910974 -0.9963138680841535
N 0.2221833515578286 0.0609568088291254 -0.4253112280190079 0.9989733053171830
O 0.1957496740044608 0.0760046892493014 -0.3280663092296793 -0.8354521971080898
N 0.0294041427429729 -0.0210752206559807 0.4293203405541406 0.2899344186932475
O 0.0312803631959228 -0.0301796024447841 0.0421031824094984 -0.8678253524624289
N 0.0014784727601137 0.0493446824789032 -0.3501702107146029 0.9219570073558310
O 0.1165000163195907 0.2155629505931305 -0.1768556143433919 -0.9704818863270434
O 0.2699157877848796 -0.4414367224307977 -0.1977228753435630 -0.3320651923316272
N 0.0917360341607587 -0.0137137702085508 0.3974344509548527 0.9769593393400061
O 0.2188148635522942 -0.5505375347649965 -0.1167442254492740 -0.1970026432733326
O 0.2169360366016740 0.4519810013860011 -0.0488489083826802 -0.1946060569702309
N 0.0269487263048618 -0.1067585308253436 0.1863147426851257 0.1283355164991325
N 0.0338398272171705 -0.0489519830688556 -0.1455866299759126 0.1235072004109040
