25
s                      x[A]                      y[A]                      z[A]                      q[e]
N 1.7134613888374390 0.8832771121407933 -1.2681380111952891 0.1158659338886357
O 1.7361980183351595 -0.5322277938853623 -0.3583748005671024 -0.2341991647481463
N 3.3288407077963114 -0.4256940466402365 -0.0817827604448636 0.0569852111266852
N 2.1328027442369577 -0.3570763337883683 0.0490498764930705 0.3189271149812888
O 1.9061126687595240 0.0062673437000739 0.1889154876676035 -0.2877498234141676
N 1.3796463594769224 -0.6513265264312096 0.6062649088255931 0.5692545008206258
O 0.9809586689558351 -0.2959112158823595 -0.0963923396242848 -0.2058946535748549
O 1.1186714245580960 -0.4924431825316051 0.5998408323039643 -0.9992971180892700
N 0.7082977619804300 -0.2280570105565911 0.3446928501855315 0.6691943173322236
N 1.0634845718884867 -1.4784495620946498 1.4482034473282237 0.0628076875181509
N -0.8046191864354730 1.5927811065038138 0.1140556888899686 0.7576134719858190
O -0.7210118995930140 1.2557669793257429 0.0333906773862125 -0.9235083265987739
N -0.7410977338082800 0.8241609183227551 0.0855318894025039 0.9955526175656415
O -0.8002156477882394 1.3984405788125751 0.1512622320944156 -0.9936641819349231
O -0.4789116337148191 -0.2133630933777961 0.2254124131766893 -0.9934394819660318
N -0.5135881166222879 0.2093225452262640 0.0678147246404889 0.8475065253219278
N -0.3822724247057716 -0.4752507069776256 0.1446616149704195 0.9207393412409772
O -0.5800110846492955 -0.3280804829753160 -0.1782020750087298 -0.6738758902636315
N -2.7272145988569796 -0.3993373571606482 -0.5313129699926654 0.1207489421105395
N -0.9897080735754654 -0.8010977288170509 -0.1605949434801363 0.4308753055723465
O -1.3537448952362416 -0.6022015144632613 0.0531151851329081 -0.7095764258838037
N -1.4718637994878252 -0.4046138513184999 -0.1705766683412188 0.9977500474782615
O -1.3656722681870930 -0.5822456662630111 -0.2968582237280905 -0.9963537733476465
O -1.5336545016002374 -2.1023709087433557 0.0598955432568349 -0.1586318904925156
N -1.4992515445478001 -2.0384132597401479 -0.0997081239455903 0.3123697133706422
