25
s                      x[A]                      y[A]                      z[A]                      q[e]
N 1.9385149958016132 1.2945307865320004 -0.7224381431044562 0.1158659338886357
O 1.7977231062887415 -0.3450611435631534 -0.4069167997165484 -0.2341991647481463
N 3.3551130622832890 -0.4810728931985092 0.0251455127805588 0.0569852111266852
N 2.1562508052962128 -0.3778617187486389 0.0433337710378837 0.3189271149812888
O 1.9205081092239313 -0.0825167183225665 0.3318849009426359 -0.2877498234141676
N 1.3919225800664647 -0.7330785862860700 0.1568641443974381 0.5692545008206258
O 0.6971241627033693 -0.6673622794956355 0.6557026615011040 -0.2058946535748549
O 1.1132147515249542 -0.6669408418330780 0.0460387687118641 -0.9992971180892700
N 0.5719684262207158 -0.6132679050737070 0.1789556446631539 0.6691943173322236
N 0.8813731547891949 -1.8853878544766962 0.7796264011068963 0.0628076875181509
N -1.6777692336575627 -1.1057954964846790 -0.1861417769140837 0.7576134719858190
O -1.4358609616161757 -0.8859133031804117 -0.0624302579406255 -0.9235083265987739
N -1.1782257072592703 -0.5312249496203476 -0.0759539470962424 0.9955526175656415
O -1.5455474071491975 -0.9636025583206691 -0.2061377114433490 -0.9936641819349231
O -0.3314053828155291 0.1197022356597508 -0.0488662218870559 -0.9934394819660318
N -0.6517272784662592 -0.1785194470843851 0.0577069192608341 0.8475065253219278
N -0.1326538178422881 0.2759660966388827 0.0821856309032419 0.9207393412409772
O -0.4527031859310501 0.3139513979324696 0.3109820333418066 -0.6738758902636315
N -2.1075998676323744 1.6973773039558484 -0.0642000106542450 0.1207489421105395
N -0.4749785751691152 0.9392079770741953 0.1848231433974123 0.4308753055723465
O -0.7888373775406401 0.9695748175305701 -0.1487112682926593 -0.7095764258838037
N -1.0619161281299614 0.9108946654799724 0.0009094688565686 0.9977500474782615
O -0.9187085322809099 1.0022729306703122 0.1687118387576825 -0.9963537733476465
O -0.0228957119106234 2.2689755086720020 -0.0691864578172056 -0.1586318904925156
N -0.1023157882158428 2.2218872039853097 0.0831162215024345 0.3123697133706422
