25
s                      x[A]                      y[A]                      z[A]                      q[e]
N 0.0644512221761324 -0.0030591614999623 0.2439295987091310 0.1158659338886357
O -0.1720983050516711 0.4380441042127448 0.3086623800771191 -0.2341991647481463
N -0.0848480356539916 -0.0073968895495566 -0.3913255220489623 0.0569852111266852
N -0.5098747323696400 -0.0299374508674202 0.1379124029108204 0.3189271149812888
O -0.2396570711051340 -0.3411438016177092 0.2760015324436676 -0.2877498234141676
N 0.0373260985519047 0.1118688594521133 -0.5522377299012526 0.5692545008206258
O -0.1605529430268610 -0.4953603275103445 0.0443215591005040 -0.2058946535748549
O -0.0723206751814672 0.1684987584085859 -0.2722901310425475 -0.9992971180892700
N -0.1851814011550944 -0.0189853518608075 0.2432276200639653 0.6691943173322236
N 0.0175050784052682 -0.0184833512019073 0.3800788837658381 0.0628076875181509
N 0.0571779836964412 0.0065349882443396 0.2931305421826924 0.7576134719858190
O 0.0346866921912891 -0.0766721454849254 -0.0587813135536896 -0.9235083265987739
N 0.1058546756568469 -0.0081397725736941 -0.4765658361083220 0.9955526175656415
O 0.0677533204799755 0.0492982192587929 0.0938162816584633 -0.9936641819349231
O -0.0429366829227466 0.1154223023646674 -0.1237402250766903 -0.9934394819660318
N -0.0275183680559092 -0.0514830182007124 0.2967924436435735 0.8475065253219278
N -0.0793274778375160 0.0190845091081369 -0.4025830333101475 0.9207393412409772
O 0.1560182088399325 -0.2552266609323472 -0.2255498668720134 -0.6738758902636315
N -0.0646023654838078 0.0224084205828529 0.2196687160602580 0.1207489421105395
N 0.2627930632017478 0.0761267796789141 -0.4897648546379614 0.4308753055723465
O 0.3493809496127451 -0.2111890002055059 -0.1267878863496903 -0.7095764258838037
N 0.4489853359204156 -0.0080576063436403 0.1020023059023828 0.9977500474782615
O 0.3056490014240323 0.1251761343903604 -0.0359469939436385 -0.9963537733476465
O -0.0333350008099331 -0.3713909578691584 -0.1401885875476511 -0.1586318904925156
N -0.0301149237908188 -0.1996997660700810 -0.0926894382557719 0.3123697133706422
