21
s                      x[A]                      y[A]                      z[A]                      q[e]
N       -2.1046043339209115        1.6089023616904210       -0.2614602256466427        0.0690680479201058
O       -1.8686032469762595       -0.1857861822564863        0.3891799001956061       -0.3117950550350966
N       -1.9851278001730295       -0.3282388677987791        0.0572374705563360        0.5776243102962968
N       -3.3227500460400146       -0.5338142649744204        0.0487234142094250        0.0604184539076988
O       -1.8456514169344811       -0.3145593293171013       -0.2703586398981151       -0.3968494342195521
O       -0.9337613603692306       -0.0815361947355691        0.1215590651036713       -0.9828651838991298
N       -0.7633941832015486        0.0594169926001278        0.1158061678984974        0.7759263489545838
N       -1.0741938069876917       -1.2926665868069109        0.0762703181175259        0.9970342621901004
O       -1.0904572515055349       -1.3046060213428639       -0.2107591855519601       -0.3970377457969525
O       -1.0686236065360588       -1.3170026612274697        0.4918756391821699       -0.3893757401670396
N        1.7324670563026485       -1.3134401277019734       -0.1095244770844002        0.1691966627363242
O        1.4246655570652771       -0.9810524669114911       -0.0637417358242630       -0.6800109224217911
O        0.3872932308475966        0.4163891071080843       -0.3431189271205964       -0.9821368279659007
N        0.2438863165882436        0.5013442947292142       -0.2145138071641678        0.8921713087406896
O        0.5998802979402821        0.4891100766285894        0.3216540317422639       -0.3335771210350215
N        0.7805919077578003       -0.1280254633277748       -0.0768662313013397        0.9988617281482304
N        2.3613040684237059        1.6063120210515873       -0.0449779145744857        0.0655379221577991
N        1.1346604471273913        1.0610520705689142       -0.0010491610700637        0.9908754307264420
O        0.9924133135682472        1.0491422990390640       -0.3533038217895300       -0.6595771554465193
O        1.0704081144217574        1.1071751988669856        0.3614045866041254       -0.5578053818499882
N       -0.0558610226440313        2.2825319994269213       -0.0346130281723526        0.0943160920587207

        RMSE         4.310071945E+00 kcal/mol

Coordinates in bohr
s                   x[bohr]                   y[bohr]                   z[bohr]                      q[e]
+       -3.9771257935621169        3.0403848261971884       -0.4940882191725596        0.0690680479201058
-       -3.5311483739263640       -0.3510850023591518        0.7354434249027069       -0.3117950550350966
+       -3.7513478663596009       -0.6202815638700512        0.1081631434654313        0.5776243102962968
+       -6.2790875703680165       -1.0087627626642299        0.0920739087530537        0.0604184539076988
-       -3.4877757010693475       -0.5944309826170190       -0.5109037850587134       -0.3968494342195521
-       -1.7645532376327770       -0.1540810773622220        0.2297133411126366       -0.9828651838991298
+       -1.4426059320185058        0.1122818432125959        0.2188419409669463        0.7759263489545838
+       -2.0299321008696447       -2.4427858205954189        0.1441300127436683        0.9970342621901004
-       -2.0606655568649468       -2.4653480819612028       -0.3982771391177530       -0.3970377457969525
-       -2.0194059475521571       -2.4887743362190351        0.9295102458388146       -0.3893757401670396
+        3.2738882577901331       -2.4820421235430854       -0.2069712657234982        0.1691966627363242
-        2.6922277232261846       -1.8539204771674962       -0.1204544234691410       -0.6800109224217911
-        0.7318781365456730        0.7868613740582048       -0.6484008007188515       -0.9821368279659007
+        0.4608783440984828        0.9474034115990253       -0.4053723456695506        0.8921713087406896
-        1.1336094711651767        0.9242840900297256        0.6078380271421977       -0.3335771210350215
+        1.4751049214108825       -0.2419330627743391       -0.1452561254556259        0.9988617281482304
+        4.4622179882501358        3.0354897918181494       -0.0849959402400160        0.0655379221577991
+        2.1441974904602921        2.0050978182252002       -0.0019826270839126        0.9908754307264420
-        1.8753893659020886        1.9825916118170086       -0.6676474622597715       -0.6595771554465193
-        2.0227781787248471        2.0922578987579090        0.6829556891661021       -0.5578053818499882
+       -0.1055620338852172        4.3133603515105454       -0.0654091436185025        0.0943160920587207
