21
s                      x[A]                      y[A]                      z[A]                      q[e]
N -2.1046308017433892 1.6091670557220845 -0.2614737094663028 0.0690680479201058
O -1.8684811902267453 -0.1853352905514959 0.3904503097112226 -0.3117950550350966
N -1.9852810213952896 -0.3295418534001711 0.0553076021172605 0.5776243102962968
N -3.3227265702138169 -0.5339720791836891 0.0485310043658675 0.0604184539076988
O -1.8455582475687013 -0.3134649335016926 -0.2693332427735693 -0.3968494342195521
O -0.9328282572134348 -0.0800639103388674 0.1244824152673387 -0.9828651838991298
N -0.7642783960119645 0.0584756811205287 0.1134625400329303 0.7759263489545838
N -1.0753663955765356 -1.2976846647920670 0.0713599462934174 0.9970342621901004
O -1.0900018540604492 -1.3021120320967872 -0.2089381058626073 -0.3970377457969525
O -1.0681650029680572 -1.3153019858046560 0.4944138727581852 -0.3893757401670396
N 1.7320384198771439 -1.3138172654999121 -0.1101247224087959 0.1691966627363242
O 1.4262343788088108 -0.9797506660081997 -0.0615605861594394 -0.6800109224217911
O 0.3887150707153883 0.4173760076733529 -0.3415041499891591 -0.9821368279659007
N 0.2426184738002110 0.5006935076976557 -0.2162808463507576 0.8921713087406896
O 0.6003699417445802 0.4892527195804808 0.3226111669125052 -0.3335771210350215
N 0.7790825536026063 -0.1294080014709108 -0.0794004129545563 0.9988617281482304
N 2.3612393308677602 1.6063351680564000 -0.0450489846387406 0.0655379221577991
N 1.1334199007540893 1.0610001279129233 -0.0026746284390665 0.9908754307264420
O 0.9934133474721653 1.0493464905204699 -0.3524061287875836 -0.6595771554465193
O 1.0711309204117638 1.1071309840410806 0.3626280992748931 -0.5578053818499882
N -0.0562265178899083 2.2826538943497381 -0.0348166941002417 0.0943160920587207
