21
s                      x[A]                      y[A]                      z[A]                      q[e]
N -0.1638693825643340 -1.2470059717035440 -0.3149583448752787 0.0690680479201058
O -0.5234729379004524 0.1207803709183229 0.5335219568162686 -0.3117950550350966
N -0.4636602221589020 -0.1792803517282448 0.3029913307739110 0.5776243102962968
N 0.1071114678270467 0.3170869187991403 -0.4341021425330011 0.0604184539076988
O -0.1731413516521098 -0.3692257649344346 0.2344922436848307 -0.3968494342195521
O 0.1344674790081083 -0.3092104084870759 0.0869044737607862 -0.9828651838991298
N 0.2397540570647348 -0.2824273971120639 0.2764331484930416 0.7759263489545838
N -1.0387373790979981 -0.3302133587945431 -0.2721061894063340 0.9970342621901004
O -1.0700670835049859 -0.6034820510848209 -0.2160395531198673 -0.3970377457969525
O -0.1571897914938698 -0.8092448450864665 -0.3855588204097116 -0.3893757401670396
N 0.3130251533872668 0.2481686165119036 0.4372169839421713 0.1691966627363242
O 0.2358381925804504 0.1942298128055875 -0.0084374318280121 -0.6800109224217911
O 0.2044179106336489 -0.4312898914144539 -0.2881647970533249 -0.9821368279659007
N 0.1060845717265040 -0.3546548577651739 -0.4567605362982925 0.8921713087406896
O 0.2863807803136671 0.2601367556840726 -0.3670601705822476 -0.3335771210350215
N 0.1741004613271456 -0.0439645101673371 0.3193858548502050 0.9988617281482304
N -0.3552100695486293 -0.1438952310645024 0.1661845204117780 0.0655379221577991
N 0.1490465611295594 0.0432344156698812 0.0166048362754664 0.9908754307264420
O 0.2033343860329119 0.4122097659465008 -0.0377990929750270 -0.6595771554465193
O 0.0535075488240913 -0.2879615893469827 -0.1270459876798026 -0.5578053818499882
N 0.3981148561155917 0.5092742996374164 -0.3860981455296986 0.0943160920587207
