30
s                      x[A]                      y[A]                      z[A]                      q[e]
N       -1.7926542464244839        1.7253760113504057       -0.3505228414528199        0.2137068255539760
N       -1.4923148359229890        1.0112010299906276        0.0327203933748995        0.4524136045707061
O       -1.4387008281505336        1.2977471404891374        0.4341575806728749       -0.5303393512711568
N       -1.0542449959239564        1.6749933426949031        0.9072596064902937        0.2065219334641430
N       -3.1776615470552212        1.4795245555384660        0.2321799805804684        0.0640972179527254
N       -1.4808226820796011        1.7743099975811887       -1.0632242904042248        0.2729192555687945
O       -1.6531160672689591        1.5863181549932206       -0.6726786465609818       -0.5760168259183410
O       -2.7214335022439937       -0.9024027619405938        0.1996381197616598       -0.7855321009151053
O       -2.3409790235008030       -1.3463086369889876        0.0777665406077050       -0.7445427033607991
N       -2.5647869457896380       -1.1202261010668788        0.1401796374877989        0.9977538426035523
N       -1.7713759562511651        0.0881482152519376       -0.0558378648538895        0.2084365764815679
N       -1.3732999556120795       -0.5695186022743348       -0.0965370866488263        0.3300899125146088
N       -0.2027211114868107       -0.7125367646186805       -1.0817112370117041        0.6266498413516267
O       -0.0847981175345429       -0.2619999487871489       -0.5333419654920439       -0.5811225412727979
N       -0.1103461583726956       -0.8061910951601503       -1.6908232170276847        0.5003074335780895
O       -0.0992336836747766       -0.7980944684883721       -1.5536555116452282       -0.5967490130385100
N       -0.0957824384832636       -1.7015360183319808       -0.2086792644834081        0.9708061175491041
O       -0.0263711788326333       -1.6324394366478838        0.1400976814532484       -0.1568654630532827
O       -0.0977520585220210       -1.6299663780403311       -0.3507621863760179       -0.7813807259506527
N        0.6626613892510065       -0.0442092212560751        0.4039951809509915        0.1400529194232831
N        0.7757409873646357        0.3281684271758709       -0.1551280001540012        0.1778327620465852
N        1.1614007538838871        0.7664630310419415       -0.3395228387177713        0.7120624373414439
O        1.1681109828147098        0.9344694201639506       -0.4419744785925623       -0.9970019554920370
N        1.7974647806154720       -0.5047354221617143       -0.2184988132292008        0.9931708722557875
N        2.4499285289287958       -0.9178164141260530       -0.3697273962472907        0.8506195801821621
O        2.1607862241885312       -0.8428180254916224       -0.3613339012362953       -0.8089940633040810
O        2.3284592984310928       -0.7739580924185766       -0.3118383760555118       -0.9883399134133223
N        1.0345599705015009        0.2173116883300631        1.8241782717420643        0.2529889584625400
N        1.1218666163256175        0.1384763821089071        0.9905139837877581        0.5419198115726583
O        1.0430215524159581        0.1537251484710461        1.4124362051935035       -0.9654652454832693

        RMSE         2.723704927E+00 kcal/mol

Coordinates in bohr
s                   x[bohr]                   y[bohr]                   z[bohr]                      q[e]
+       -3.3876255633812629        3.2604881248870838       -0.6623921710631060        0.2137068255539760
+       -2.8200663328519844        1.9108930044631536        0.0618325821958048        0.4524136045707061
-       -2.7187505416738764        2.4523866756205135        0.8204389227630964       -0.5303393512711568
+       -1.9922343114306820        3.1652786796584955        1.7144721809572965        0.2065219334641430
+       -6.0049100433329912        2.7958962058574204        0.4387565751112023        0.0640972179527254
+       -2.7983493094963539        3.3529599570901882       -2.0092027187982247        0.2729192555687945
-       -3.1239366207322523        2.9977068607787491       -1.2711784124438998       -0.5760168259183410
-       -5.1427639878866698       -1.7052940749244412        0.3772613705508872       -0.7855321009151053
-       -4.4238092198582226       -2.5441546042476091        0.1469574634728573       -0.7445427033607991
+       -4.8467448976918694       -2.1169205296058422        0.2649011232179012        0.9977538426035523
+       -3.3474154225356694        0.1665759852740667       -0.1055182720041784        0.2084365764815679
+       -2.5951608042102223       -1.0762341816520367       -0.1824286547158731        0.3300899125146088
+       -0.3830873805584752       -1.3464993394491156       -2.0441379847823220        0.6266498413516267
-       -0.1602452180946694       -0.4951081480916882       -1.0078702459933429       -0.5811225412727979
+       -0.2085240183207899       -1.5234803746355940       -3.1951928067478672        0.5003074335780895
-       -0.1875244845656433       -1.5081799676858560       -2.9359834103175366       -0.5967490130385100
+       -0.1810025763618806       -3.2154370672494341       -0.3943466579356202        0.9708061175491041
-       -0.0498343055991477       -3.0848634516611653        0.2647462487582721       -0.1568654630532827
-       -0.1847246188063456       -3.0801900482006843       -0.6628444674174688       -0.7813807259506527
+        1.2522485395998062       -0.0835433203937506        0.7634402480021514        0.1400529194232831
+        1.4659380104114030        0.6201484503846478       -0.2931494346810422        0.1778327620465852
+        2.1947293467407984        1.4484052139575512       -0.6416051785145771        0.7120624373414439
-        2.2074098416591772        1.7658912767252457       -0.8352107189819666       -0.9970019554920370
+        3.3967161555193810       -0.9538117137029776       -0.4129029157407512        0.9931708722557875
+        4.6296939466212095       -1.7344216561480235       -0.6986835199860039        0.8506195801821621
-        4.0832941793784432       -1.5926952417783007       -0.6828221131798259       -0.8089940633040810
-        4.4001503683104417       -1.4625688272528885       -0.5892891261524436       -0.9883399134133223
+        1.9550350046095666        0.4106595748046693        3.4471973376034883        0.2529889584625400
+        2.1200206541494930        0.2616824370300828        1.8718001527950381        0.5419198115726583
-        1.9710250770160174        0.2904984292056193        2.6691175974966774       -0.9654652454832693
