30
s                      x[A]                      y[A]                      z[A]                      q[e]
N -1.7923184832975716 1.7224634663265161 -0.3603676108002579 0.2137068255539760
N -1.5159184975250386 1.0091010468557584 -0.0092277765933375 0.4524136045707061
O -1.3918524761393241 1.2715842922967953 0.4649977075049452 -0.5303393512711568
N -1.0959250081199789 1.6909875153492226 0.8719698840125822 0.2065219334641430
N -3.1797657021798509 1.4786870473917519 0.2355226400270976 0.0640972179527254
N -1.4591388373276488 1.7615688344345102 -1.0691318353251709 0.2729192555687945
O -1.6569406723927247 1.5738054965225505 -0.6393695048917002 -0.5760168259183410
O -2.6964890723184807 -0.8933752551279244 0.2004079083304761 -0.7855321009151053
O -2.3442106707262176 -1.3045621781602621 0.0932288815692097 -0.7445427033607991
N -2.5266297021816935 -1.1234388840780807 0.1193552608104917 0.9977538426035523
N -1.7830635134526063 0.0806782011053102 -0.0783142573653978 0.2084365764815679
N -1.3840777675476641 -0.6004572857182821 -0.1385977928971401 0.3300899125146088
N 0.0886962759929365 -0.6539318943021668 -0.2220995026395711 0.6266498413516267
O -0.0423576376331250 -0.2411974620532269 -0.4204149437596787 -0.5811225412727979
N -0.0953594594162049 -0.7840967668979937 -1.7320019062905667 0.5003074335780895
O -0.1211321385115441 -0.8176025749917957 -1.4667534995308029 -0.5967490130385100
N -0.0875115731103905 -1.6219633553666792 -0.2491617035664205 0.9708061175491041
O -0.0308124526725741 -1.6470766059335129 0.1487412960483555 -0.1568654630532827
O -0.1111859583438819 -1.6463238227979136 -0.3131087048605355 -0.7813807259506527
N 0.6625169888452029 -0.0373481562213671 0.4003260848187335 0.1400529194232831
N 0.7749809293327923 0.3312750533364443 -0.1628509457058080 0.1778327620465852
N 1.1408313120846469 0.7648017712285649 -0.3554180790834581 0.7120624373414439
O 1.1605732443075565 0.9126828338237171 -0.4138872110930540 -0.9970019554920370
N 1.7774070124234185 -0.4838191980372135 -0.2359343823151893 0.9931708722557875
N 2.4214110381459943 -0.8984770398415505 -0.3735593254171699 0.8506195801821621
O 2.1455626520479258 -0.8334206285141338 -0.3356564775995363 -0.8089940633040810
O 2.3062471561218993 -0.7630437466498248 -0.2904341649302810 -0.9883399134133223
N 1.0271698817052677 0.2277084831862535 1.8087492890028050 0.2529889584625400
N 1.1122966372730785 0.1546338910267416 0.9688070672020739 0.5419198115726583
O 1.0279028306839779 0.1284323008572754 1.4009683337612546 -0.9654652454832693
