25
s                      x[A]                      y[A]                      z[A]                      q[e]
N 1.9270452141705541 1.2921561964839530 0.1801032792108741 0.1158659338886357
O 1.7980323779908578 -0.2944706108421029 -0.4200352522221251 -0.2341991647481463
N 3.2854108371675750 -0.6747169526265669 0.0351190950678817 0.0569852111266852
N 2.0890150996042851 -0.5450840860119617 0.0460810953924443 0.3189271149812888
O 1.8225766511519639 -0.4057967431221799 0.3546715491399267 -0.2877498234141676
N 1.2850093626667887 -0.9661737677827209 0.0393869891492613 0.5692545008206258
O 0.8134039546496747 -0.5348757416799781 -0.5604632774789793 -0.2058946535748549
O 1.0831364329749649 -0.7460101369804605 0.0968565215039794 -0.9992971180892700
N 0.6552798567568836 -0.4259813162996394 -0.0771190356708318 0.6691943173322236
N 0.7659821440846295 -2.1585845149404856 -0.1763509496142909 0.0628076875181509
N -0.5383203854578469 1.6294920556366164 -0.0265312732953837 0.7576134719858190
O -0.5260723270220573 1.2751262185448633 -0.1056500266868311 -0.9235083265987739
N -0.6071162870946871 0.8590151968408936 -0.0362641056635401 0.9955526175656415
O -0.5518185882801137 1.4298902895850234 0.0216670033437944 -0.9936641819349231
O -0.4788671793683111 -0.2017875120111791 0.0898978105666125 -0.9934394819660318
N -0.4903544620814909 0.2187855625711253 -0.0801567127726030 0.8475065253219278
N -0.4538995323792770 -0.4831053717038005 -0.0061178969484993 0.9207393412409772
O -0.6910420804856624 -0.3005953799734247 -0.2764902119454045 -0.6738758902636315
N -2.8490538380108590 -0.0299268219277006 0.0791296599870841 0.1207489421105395
N -1.1643334796704399 -0.7099929372548204 -0.0552702184326938 0.4308753055723465
O -1.4092549679720212 -0.4387510103581104 0.2427458443445249 -0.7095764258838037
N -1.5619622050189637 -0.2349715393218403 0.0443045467815975 0.9977500474782615
O -1.5275094969069887 -0.4313103537057008 -0.0896711352015469 -0.9963537733476465
O -1.8060094784885934 -1.8839581441409718 0.4380258162224643 -0.1586318904925156
N -1.8086118405711242 -1.8407906939973373 0.2684217933079935 0.3123697133706422
