21
s                      x[A]                      y[A]                      z[A]                      q[e]
N -1.9801979778721617 1.4198775079693133 0.2239650005938235 0.0707249461841811
O -1.6164300831450571 -0.1207180599055849 0.3213166761373321 -0.3496602100029151
N -1.5093283173435603 0.1539104550548738 -0.1398626582164904 0.9824851761690530
N -3.0440450812783308 -0.6960412363040240 0.0492590746108894 0.1071394941056757
O -1.5682500453260286 0.0575997301002260 -0.2915568148079900 -0.8194842575378962
N -0.4812932112745204 -0.6527849168966214 -0.1799717994734619 0.3116552922920345
N -0.7384099209710818 -2.0125535243362331 -0.1836687182268571 0.0918298459672651
N -1.2453295142736540 -1.0083947732460619 -0.1123090090323365 0.5593901217632046
O -0.9471300675021904 -0.8167174751193516 -0.1237291808353848 -0.9963138680841535
N 0.7233928484639868 0.8893280875459219 -0.1077250106176254 0.9989733053171830
O 0.6952837588823960 0.9859073183379465 -0.1239756569737985 -0.8354521971080898
N 0.5054728474650911 1.7387114640753851 -0.0346021820715639 0.2899344186932475
O 0.5166301016493857 1.3516469996392488 -0.0256493287615172 -0.8678253524624289
N 0.5349011688170627 -0.4072088595988375 -0.1075710743569613 0.9219570073558310
O 0.6534342678925283 -0.2307660315032672 -0.2679277090504359 -0.9704818863270434
O 0.7753882624161010 -0.2489734607949151 0.3957108406193539 -0.3320651923316272
N 0.6032025487581190 0.3423069552294024 -0.0397736495110612 0.9769593393400061
O 1.5536057148535307 -0.5460052466865414 -0.4767273169620088 -0.1970026432733326
O 1.4978477986380070 -0.5032399465284265 0.5256293577193701 -0.1946060569702309
N 2.7748678385939640 0.0244015547482670 0.1048876068881227 0.1283355164991325
N 1.7359222316528438 -1.8951344595919846 0.0606414116106063 0.1235072004109040
