21
s                      x[A]                      y[A]                      z[A]                      q[e]
N 1.7009753166030548 0.6004341120576410 -1.6425771074604234 0.0707249461841811
O 1.5914041202356826 -0.3245904248385757 -0.3600590674523933 -0.3496602100029151
N 1.4691709198558609 0.2063536187281806 -0.3152035445817591 0.9824851761690530
N 3.1148897605949935 -0.3355323336685354 0.0152539208847006 0.1071394941056757
O 1.5487199846607831 0.2829683682450399 -0.1665129200430426 -0.8194842575378962
N 0.5758646452609277 -0.3939964197033476 0.5003591112260387 0.3116552922920345
N 1.0887346064215520 -0.9680499389900032 1.6181161735807092 0.0918298459672651
N 1.3995363084206300 -0.5424528448495187 0.6164697397729617 0.5593901217632046
O 1.0645458069480636 -0.4335836898000833 0.5525101352408471 -0.9963138680841535
N -0.9386112479495451 0.8129202575450297 0.1066959475535324 0.9989733053171830
O -0.9418104481786380 0.9128343428208811 0.1255710829860630 -0.8354521971080898
N -0.9146505739995734 1.6910147842417584 0.0587763707921331 0.2899344186932475
O -0.8355014720768067 1.3119225522571141 0.0585247070566050 -0.8678253524624289
N -0.4581550922231878 -0.4085837083727553 0.1872334078819328 0.9219570073558310
O -0.6512878895560490 -0.2686423634656119 0.3115281349683556 -0.9704818863270434
O -0.6140291322375173 -0.2993506756331448 -0.3608276350424287 -0.3320651923316272
N -0.6817072141437077 0.3052967786331688 0.0838097499507550 0.9769593393400061
O -1.4629652416889638 -0.7937034886445843 0.3306651860746528 -0.1970026432733326
O -1.2072550483676174 -0.7076297143961685 -0.6372593928188226 -0.1946060569702309
N -2.6318883366801678 -0.5130215081796382 -0.5117814175572576 0.1283355164991325
N -1.1957085293273866 -2.1300227793963034 -0.2055568610474196 0.1235072004109040
