21
s                      x[A]                      y[A]                      z[A]                      q[e]
N        1.7012424059455995        0.6005262625578133       -1.6422226520572345        0.0707249461841811
O        1.5908314855441830       -0.3251214813193719       -0.3612317948138746       -0.3496602100029151
N        1.4698567391601647        0.2069039820951465       -0.3136057852714872        0.9824851761690530
N        3.1150288828429584       -0.3352380447603533        0.0156796952428696        0.1071394941056757
O        1.5479453542607002        0.2822291126284154       -0.1680755998330251       -0.8194842575378962
N        0.5763480995265803       -0.3934009849464258        0.5015922601459143        0.3116552922920345
N        1.0888862713666756       -0.9677344666373739        1.6185594746606682        0.0918298459672651
N        1.4000000681110736       -0.5416267476943037        0.6178365006359798        0.5593901217632046
O        1.0638740549121171       -0.4343105336827220        0.5509321565208738       -0.9963138680841535
N       -0.9378273916991084        0.8133400163924972        0.1079365626237294        0.9989733053171830
O       -0.9423140404621727        0.9123201552954998        0.1243243115069074       -0.8354521971080898
N       -0.9141744661544493        1.6912514459721404        0.0597364215363827        0.2899344186932475
O       -0.8360054010082972        1.3113760128632377        0.0572978430803844       -0.8678253524624289
N       -0.4574946978766130       -0.4079968797592902        0.1885151423163829        0.9219570073558310
O       -0.6518782617197677       -0.2691217475037128        0.3101970935927643       -0.9704818863270434
O       -0.6143733719730269       -0.2996568394552948       -0.3618596486000921       -0.3320651923316272
N       -0.6809686528089128        0.3057919463397031        0.0851365434729103        0.9769593393400061
O       -1.4632557717881012       -0.7939162112429508        0.3300810017771119       -0.1970026432733326
O       -1.2073946624360476       -0.7077777961542253       -0.6378977336456365       -0.1946060569702309
N       -2.6317755711443329       -0.5129750543185693       -0.5114766299152002        0.1283355164991325
N       -1.1956522727987084       -2.1299076464371645       -0.2052089705793372        0.1235072004109040

        RMSE         8.078012182E-01 kcal/mol

Coordinates in bohr
s                   x[bohr]                   y[bohr]                   z[bohr]                      q[e]
+        3.2148822202521314        1.1348301673790469       -3.1033510494111969        0.0707249461841811
-        3.0062358194337300       -0.6143905571967664       -0.6826291600058004       -0.3496602100029151
+        2.7776266806712155        0.3909918604264571       -0.5926290455222472        0.9824851761690530
+        5.8865514614640508       -0.6335080914310404        0.0296303297396676        0.1071394941056757
-        2.9251927767275183        0.5333357274986964       -0.3176168520564629       -0.8194842575378962
+        1.0891400610333473       -0.7434201190341027        0.9478719983251735        0.3116552922920345
+        2.0576968346539690       -1.8287531041106426        3.0586341248735622        0.0918298459672651
+        2.6456167043522347       -1.0235262153646814        1.1675417765132532        0.5593901217632046
-        2.0104305957641837       -0.8207279620617719        1.0411108895323167       -0.9963138680841535
+       -1.7722369232637771        1.5369898778572002        0.2039705422821763        0.9989733053171830
-       -1.7807154606470927        1.7240352322436490        0.2349388994841602       -0.8354521971080898
+       -1.7275393719185259        3.1960020421718824        0.1128854764186640        0.2899344186932475
-       -1.5798212473092275        2.4781415118063812        0.1082772310013855       -0.8678253524624289
+       -0.8645396828358716       -0.7710023627864068        0.3562419894796693        0.9219570073558310
-       -1.2318713817898808       -0.5085663971866311        0.5861875518033337       -0.9704818863270434
-       -1.1609974118030491       -0.5662693581907926       -0.6838156317085833       -0.3320651923316272
+       -1.2868442538308238        0.5778630299527353        0.1608847504319348        0.9769593393400061
-       -2.7651526601749326       -1.5002842058102999        0.6237626925755002       -0.1970026432733326
-       -2.2816452373437346       -1.3375061924116047       -1.2054520126404984       -0.1946060569702309
+       -4.9733350531331428       -0.9693823618539489       -0.9665507501118787        0.1283355164991325
+       -2.2594553368707495       -4.0249421242847045       -0.3877887528820804        0.1235072004109040
