11

C         1.602150       -0.778744        -0.166910
C         0.512602       0.203280        0.133177
H         1.677404       -1.528328        0.624430
H         2.553824       -0.263203        -0.294704
H         1.344653       -1.304206        -1.093508
O         -0.662725       -0.415219        0.525550
O         0.584935       1.417002        -0.029261
C         -1.863181       -0.177203        -0.274210
H         -2.021768       0.893908        -0.417649
H         -2.681367       -0.610754        0.295677
H         -1.759857       -0.685682        -1.236899
