25
s                      x[A]                      y[A]                      z[A]                      q[e]
N -1.6988371293000122 0.2950960117129288 -1.6367483358920625 0.1158659338886357
O -1.8490421206299832 0.4974078480685390 0.0526519239811590 -0.2341991647481463
N -3.3766151761782415 0.0270992100188866 0.0489966929442516 0.0569852111266852
N -2.1713332208722060 -0.0129014688540368 0.1265295678657035 0.3189271149812888
O -1.8786722470332380 -0.2791337286634417 -0.0434437261750271 -0.2877498234141676
N -1.4238040671442707 0.0387855451355932 0.7827962455386070 0.5692545008206258
O -1.0264663427563618 -0.1253119980431585 0.0139115650519103 -0.2058946535748549
O -1.1382021119238526 -0.0641035267417871 0.7414207626089883 -0.9992971180892700
N -0.6956146059889082 -0.1548252556873345 0.4169007452022027 0.6691943173322236
N -1.1429967217649770 -0.2414838904866990 1.9375369082255771 0.0628076875181509
N 1.1845825585778484 -1.4766407209597554 -0.1648306932973834 0.7576134719858190
O 1.0092654235960630 -1.1616454968875387 -0.1879943386313568 -0.9235083265987739
N 0.9319684373193049 -0.7501366083882848 -0.0851125763481337 0.9955526175656415
O 1.1332377320433167 -1.2917365462605368 -0.0961821756207081 -0.9936641819349231
O 0.4354435825768500 0.1636071350288357 0.2176344065822177 -0.9934394819660318
N 0.5578170732616270 -0.2109259504532878 -0.0024232811610590 0.8475065253219278
N 0.2690697684386125 0.4078554901930965 0.1769041232891720 0.9207393412409772
O 0.4629256147623701 0.3461685174603159 -0.1752591705205666 -0.6738758902636315
N 2.5498075699093028 1.0131859808152777 -0.4227637568682788 0.1207489421105395
N 0.7767357526020456 0.9126131679214766 -0.0105119681817207 0.4308753055723465
O 1.1876758059110013 0.7643132343314484 0.1667393205589399 -0.7095764258838037
N 1.3403211622080025 0.6504056037539738 -0.0904924448910191 0.9977500474782615
O 1.1935950724866446 0.8171128301707845 -0.1816277476454690 -0.9963537733476465
O 1.0060256061447408 2.2324044847450795 0.4703177679228321 -0.1586318904925156
N 0.9750932299135036 2.1983813292354930 0.3029886081617172 0.3123697133706422
