25
s                      x[A]                      y[A]                      z[A]                      q[e]
N       -1.6988799365179783        0.2949726421642854       -1.6366451684920196        0.1158659338886357
O       -1.8489652610441649        0.4978272170216572        0.0523290235521323       -0.2341991647481463
N       -3.3766340961488459        0.0269945109017650        0.0490893704386820        0.0569852111266852
N       -2.1714457417265423       -0.0133248697023472        0.1270123106763185        0.3189271149812888
O       -1.8785284571088714       -0.2788056749911821       -0.0439114985777058       -0.2877498234141676
N       -1.4239336098917241        0.0381840736729830        0.7836030049450387        0.5692545008206258
O       -1.0263807686042896       -0.1250790131694249        0.0135583072486636       -0.2058946535748549
O       -1.1379841033718521       -0.0635029120092881        0.7404872759678955       -0.9992971180892700
N       -0.6957800882932734       -0.1552280749287619        0.4176671768119135        0.6691943173322236
N       -1.1430366458446426       -0.2416192562655215        1.9377473769026596        0.0628076875181509
N        1.1843835962580000       -1.4765887146222452       -0.1644111805348252        0.7576134719858190
O        1.0093688463082782       -1.1615499579363522       -0.1884202145723661       -0.9235083265987739
N        0.9317214056745623       -0.7502119533981007       -0.0846023552125261        0.9955526175656415
O        1.1333294396836020       -1.2916350299273571       -0.0966173577222198       -0.9936641819349231
O        0.4355502290481846        0.1639564245040013        0.2170482552890979       -0.9934394819660318
N        0.5576245821457013       -0.2111479588999092       -0.0018761595521459        0.8475065253219278
N        0.2689739660186328        0.4074164507278203        0.1774390100861350        0.9207393412409772
O        0.4629764058554964        0.3464654457339064       -0.1756515687919651       -0.6738758902636315
N        2.5497882525944022        1.0131632556573829       -0.4226816220468748        0.1207489421105395
N        0.7767353298881918        0.9123066029936148       -0.0101906845219683        0.4308753055723465
O        1.1877128550595211        0.7645802463233597        0.1663462759256180       -0.7095764258838037
N        1.3402053702429930        0.6501552022688813       -0.0901275844354265        0.9977500474782615
O        1.1935952491688109        0.8173503153803674       -0.1819387378163127       -0.9963537733476465
O        1.0059295939002435        2.2325350426941784        0.4701933722567103       -0.1586318904925156
N        0.9752515328806540        2.1981308516717055        0.3031330366015321        0.3123697133706422

        RMSE         9.717546489E-01 kcal/mol

Coordinates in bohr
s                   x[bohr]                   y[bohr]                   z[bohr]                      q[e]
+       -3.2104178000541603        0.5574175081931734       -3.0928111330036985        0.1158659338886357
-       -3.4940379588591117        0.9407570979697897        0.0988875229261623       -0.2341991647481463
+       -6.3809136676041538        0.0510122324950215        0.0927654658002546        0.0569852111266852
+       -4.1034377481547981       -0.0251803543948470        0.2400184817398053        0.3189271149812888
-       -3.5499043028146193       -0.5268663679567411       -0.0829807060702950       -0.2877498234141676
+       -2.6908445435298662        0.0721574415962424        1.4807950704318993        0.5692545008206258
-       -1.9395785530990119       -0.2363650789327459        0.0256214874247839       -0.2058946535748549
-       -2.1504782904974906       -0.1200031118666013        1.3993181509656327       -0.9992971180892700
+       -1.3148338104211532       -0.2933385485974066        0.7892765757676868        0.6691943173322236
+       -2.1600262120083080       -0.4565942209786460        3.6618118426703328        0.0628076875181509
+        2.2381606244124392       -2.7903482705778502       -0.3106921031740228        0.7576134719858190
-        1.9074306790919804       -2.1950113015367663       -0.3560626020417700       -0.9235083265987739
+        1.7606982819515120       -1.4176951279671415       -0.1598752809203739        0.9955526175656415
-        2.1416822509205846       -2.4408364606102304       -0.1825803450603834       -0.9936641819349231
-        0.8230706467814956        0.3098327388218652        0.4101617585048486       -0.9934394819660318
+        1.0537577410782366       -0.3990118142702542       -0.0035454277212174        0.8475065253219278
+        0.5082871306534166        0.7699055108816641        0.3353111330351443        0.9207393412409772
-        0.8748986096156981        0.6547248043717544       -0.3319333585238294       -0.6738758902636315
+        4.8184014753131059        1.9146010735696652       -0.7987525039328709        0.1207489421105395
+        1.4678170454558208        1.7240096221047168       -0.0192576027774621        0.4308753055723465
-        2.2444520117480837        1.4448472664862344        0.3143489034892568       -0.7095764258838037
+        2.5326211016270652        1.2286152713298237       -0.1703164509320317        0.9977500474782615
-        2.2555681255766480        1.5445682446254756       -0.3438143860843083       -0.9963537733476465
-        1.9009314339644736        4.2188797961792970        0.8885366995706234       -0.1586318904925156
+        1.8429583005773660        4.1538652975788883        0.5728384187552793        0.3123697133706422
