25
s                      x[A]                      y[A]                      z[A]                      q[e]
N 0.0653702941748973 -0.0035741469568270 0.2443855220318821 0.1158659338886357
O -0.1738644054985840 0.4400598830072010 0.3070548514904504 -0.2341991647481463
N -0.0838815677788258 -0.0061522141602069 -0.3910042652820117 0.0569852111266852
N -0.5105810871060337 -0.0325443566243786 0.1396230418977320 0.3189271149812888
O -0.2397786568050213 -0.3395387039225056 0.2739763522161612 -0.2877498234141676
N 0.0398295450727360 0.1148469832213287 -0.5524047091952784 0.5692545008206258
O -0.1602595626815702 -0.4970909576558948 0.0424188754751053 -0.2058946535748549
O -0.0730353289711465 0.1671659520674200 -0.2748227184325614 -0.9992971180892700
N -0.1841798974329994 -0.0182173322435910 0.2438924571783646 0.6691943173322236
N 0.0174695157697285 -0.0207941107368869 0.3799640466340222 0.0628076875181509
N 0.0594903294620680 0.0046346345886445 0.2967992824856724 0.7576134719858190
O 0.0359242106617066 -0.0753693170949182 -0.0568127605012676 -0.9235083265987739
N 0.1083568225371126 -0.0099231338760690 -0.4751788371726922 0.9955526175656415
O 0.0693340123620220 0.0517240803423143 0.0967132016367683 -0.9936641819349231
O -0.0430827512049847 0.1161404963772175 -0.1240305954354959 -0.9934394819660318
N -0.0259104014870992 -0.0526840894104172 0.2968682705369792 0.8475065253219278
N -0.0780175873135226 0.0198629999220948 -0.4042222769715814 0.9207393412409772
O 0.1556572457212739 -0.2567497116636299 -0.2265700701794256 -0.6738758902636315
N -0.0645018169904806 0.0228428927256091 0.2205344431936985 0.1207489421105395
N 0.2613488296537524 0.0756594878361556 -0.4891270993442469 0.4308753055723465
O 0.3494928680223057 -0.2119454837840780 -0.1259190512240152 -0.7095764258838037
N 0.4479959727191009 -0.0079055227793103 0.1040816815977355 0.9977500474782615
O 0.3051744917834121 0.1261763710146557 -0.0349097089554376 -0.9963537733476465
O -0.0341341466486269 -0.3707244929617681 -0.1403154662933176 -0.1586318904925156
N -0.0307545437530917 -0.2017089591535964 -0.0950582171843182 0.3123697133706422
