25
s                      x[A]                      y[A]                      z[A]                      q[e]
N -1.8791552722408358 1.2748756313726703 0.1633485454097687 0.1158659338886357
O -1.7690457540101128 -0.3672457615668702 0.4513235685025954 -0.2341991647481463
N -3.3012359358053853 -0.6757678487587445 0.0187682854153674 0.0569852111266852
N -2.0465630549008487 -0.4980961154667204 0.0171421426293634 0.3189271149812888
O -1.8171263949099359 -0.3598911905267987 -0.3932259143512143 -0.2877498234141676
N -1.2156821513047344 -0.9029900315933748 -0.1633245893774465 0.5692545008206258
O -0.8420137228856144 -0.5155595897358640 0.3643642895649385 -0.2058946535748549
O -0.9589060900107462 -0.7180626672913296 -0.1634443259980206 -0.9992971180892700
N -0.5708989468794055 -0.4423487887640044 -0.0457267862439199 0.6691943173322236
N -0.7412703698863982 -2.2820419711232516 -0.1473384160245134 0.0628076875181509
N 0.4574134457108950 1.2953467309028948 -0.0312650066394257 0.7576134719858190
O 0.4429019366443398 1.0594069275369353 0.0021160083868526 -0.9235083265987739
N 0.5120397501160276 0.6489883857172584 -0.0130034902144594 0.9955526175656415
O 0.4708736481151257 1.1631929869836757 -0.0537458029774905 -0.9936641819349231
O 0.4237063300533249 -0.2153998699485927 -0.0976826707830552 -0.9934394819660318
N 0.4297289316025039 0.1445856579451136 0.0130814651226394 0.8475065253219278
N 0.3945287526522350 -0.4500185694300093 -0.0341433230801627 0.9207393412409772
O 0.6326670457619191 -0.2997180107403908 0.1490819379711175 -0.6738758902636315
N 2.8532926791241060 0.0111170615557816 0.0949175653416621 0.1207489421105395
N 1.0929481555825706 -0.6858305121346451 0.0639866872450136 0.4308753055723465
O 1.3293244880333814 -0.4441448421652051 -0.1245125600757780 -0.7095764258838037
N 1.3979363489711742 -0.2357880683197433 0.0193399023151741 0.9977500474782615
O 1.3666126221556534 -0.4407591601890247 0.1206655394970186 -0.9963537733476465
O 1.8175373148696676 -1.7462756680587708 -0.2620924415904792 -0.1586318904925156
N 1.7884455186805424 -1.7966186608410941 -0.1009455034597854 0.3123697133706422
