25
s                      x[A]                      y[A]                      z[A]                      q[e]
N 0.1131835038841161 0.0160765804619358 0.2241425292641730 0.1158659338886357
O -0.1744243894721920 0.4346569251014877 0.2927813875903043 -0.2341991647481463
N -0.0889207440319741 0.0225908692464640 -0.4056366812097076 0.0569852111266852
N -0.4503372626287834 0.0014380401497429 0.1555055261639421 0.3189271149812888
O -0.2384503119593187 -0.4084047843566775 0.3206615243960538 -0.2877498234141676
N 0.0088297729663272 0.0898499355332444 -0.4678896234215867 0.5692545008206258
O -0.1754240634264275 -0.4280588942777928 0.0478690046331518 -0.2058946535748549
O -0.0497593366699582 0.0968119350550999 -0.1570022855435403 -0.9992971180892700
N -0.1330989341990350 -0.0105031122871473 0.3141273114856702 0.6691943173322236
N 0.0392459400215024 0.0616770990396340 0.5004998279992480 0.0628076875181509
N -0.0301185049814424 -0.0009594572839285 -0.0352733581679090 0.7576134719858190
O -0.0496261499549053 -0.0339434424922245 -0.2709086173701539 -0.9235083265987739
N 0.0086278180834295 -0.0154178504830184 -0.6828737780421310 0.9955526175656415
O -0.0206672583649454 0.0223543526214602 -0.1676301316617974 -0.9936641819349231
O -0.1039874038127232 0.0696034296282391 -0.1353852051806045 -0.9934394819660318
N -0.0856393984121672 -0.0421661501591800 0.2238716076389031 0.8475065253219278
N -0.1372419245974535 0.0060427090815992 -0.3694550356304658 0.9207393412409772
O 0.1098412876303433 -0.1706858435577973 -0.2259680822441293 -0.6738758902636315
N -0.0326100590485896 -0.0069923170847502 0.2466840329170803 0.1207489421105395
N 0.3153411140279490 0.0477580351069867 -0.5318473850356938 0.4308753055723465
O 0.4011173110356259 -0.1503525675845272 -0.2105806220799164 -0.7095764258838037
N 0.5354972059944201 -0.0080760500459361 -0.0359006289710013 0.9977500474782615
O 0.3749691929174789 0.0925291506964485 -0.1676980481989946 -0.9963537733476465
O -0.0182895956061950 -0.3277586783778866 0.0062857303942785 -0.1586318904925156
N 0.0055702982774514 -0.1658547822419882 -0.0443790411591954 0.3123697133706422
