21
s                      x[A]                      y[A]                      z[A]                      q[e]
N        2.0517029879775426        1.3315654413255360       -0.1154787369247990        0.0707249461841811
O        1.6153697861400755       -0.1648246184950322       -0.3119957629597489       -0.3496602100029151
N        1.4817226479011349        0.0628113387510307        0.1372782113950265        0.9824851761690530
N        2.9846417989266403       -0.8501517223929378       -0.0641072149761789        0.1071394941056757
O        1.5661766272531743       -0.0205296666943939        0.3026277916593817       -0.8194842575378962
N        0.4378393049438377       -0.6497271302434607        0.1311612376010977        0.3116552922920345
N        0.6016244666641811       -2.0265647948255854        0.0254189682592583        0.0918298459672651
N        1.1687919687554063       -1.0553851563882999        0.0347596478539612        0.5593901217632046
O        0.9026202191466565       -0.8452857608059722        0.0498903721220758       -0.9963138680841535
N       -0.6794839668494927        0.9678793196143300        0.1385411924015466        0.9989733053171830
O       -0.6057967616255133        1.0459581804797513        0.1643924495473003       -0.8354521971080898
N       -0.4096409544424237        1.7967120118783484        0.0533300099120780        0.2899344186932475
O       -0.4017038437169852        1.4002666603556231        0.0567960567011383       -0.8678253524624289
N       -0.5718141912626309       -0.3296081834431521        0.1364390983511531        0.9219570073558310
O       -0.6457370608934357       -0.1627163322729452        0.2941666806090803       -0.9704818863270434
O       -0.8232127767648754       -0.1679302616245931       -0.3511110623795152       -0.3320651923316272
N       -0.6003064268244981        0.4197648985738899        0.0672766690950196        0.9769593393400061
O       -1.5330314630342339       -0.4136710983595492        0.6123825682174949       -0.1970026432733326
O       -1.5434565519567094       -0.5656237611089484       -0.4194317732257834       -0.1946060569702309
N       -2.7698458614829300        0.1150360046951000       -0.0750945069271237        0.1283355164991325
N       -1.8233557863340386       -1.7879239489476111        0.3558085031600560        0.1235072004109040

        RMSE         4.201665346E+00 kcal/mol

Coordinates in bohr
s                   x[bohr]                   y[bohr]                   z[bohr]                      q[e]
+        3.8771567380610503        2.5162940022296483       -0.2182231861016643        0.0707249461841811
-        3.0526064871441254       -0.3114733876886819       -0.5895865442971853       -0.3496602100029151
+        2.8000499984213256        0.1186962278128045        0.2594182225293040        0.9824851761690530
+        5.6401555825651224       -1.6065539204089054       -0.1211450789708266        0.1071394941056757
-        2.9596448896017504       -0.0387954474993377        0.5718836441883423       -0.8194842575378962
+        0.8273963733046669       -1.2278063324398087        0.2478588173421759        0.3116552922920345
+        1.1369054723699352       -3.8296524377149921        0.0480348884017038        0.0918298459672651
+        2.2086967185823809       -1.9943889024473660        0.0656862146613446        0.5593901217632046
-        1.7057050094879069       -1.5973585856725423        0.0942791396078995       -0.9963138680841535
+       -1.2840386039852072        1.8290268365655469        0.2618049107332822        0.9989733053171830
-       -1.1447899671614807        1.9765744997889201        0.3106567067375413       -0.8354521971080898
+       -0.7741092136673280        3.3952936287704105        0.1007791130017788        0.2899344186932475
-       -0.7591102481688153        2.6461204906816040        0.1073289921711252       -0.8678253524624289
+       -1.0805722161365330       -0.6228691954172209        0.2578325286880841        0.9219570073558310
-       -1.2202661941466779       -0.3074893041348612        0.5558944615861877       -0.9704818863270434
-       -1.5556466910632680       -0.3173422026469618       -0.6635037475158231       -0.3320651923316272
+       -1.1344147380504921        0.7932406953852352        0.1271344792226398        0.9769593393400061
-       -2.8970096068446285       -0.7817250819168751        1.1572353379355609       -0.1970026432733326
-       -2.9167101697416515       -1.0688739985472973       -0.7926111797118661       -0.1946060569702309
+       -5.2342500879355374        0.2173865434406198       -0.1419080516185595        0.1283355164991325
+       -3.4456430654401342       -3.3786865966580288        0.6723806240816019        0.1235072004109040
