21
s                      x[A]                      y[A]                      z[A]                      q[e]
N 1.3607963634514386 -0.0353671859145936 0.2236596624450013 0.0707249461841811
O 0.5808198064482886 -0.0975950400511912 0.3445419461653344 -0.3496602100029151
N 0.9350070636582050 -0.2068437960107104 0.2711232364498404 0.9824851761690530
N -0.5025178206527364 0.5457099415266523 0.1781969288597852 0.1071394941056757
O 0.8253701394324382 0.4770362629969968 0.2095861976690395 -0.8194842575378962
N -0.0022910411320570 -0.0137375444348582 -0.5899112312514552 0.3116552922920345
N 0.8392277603364141 0.0794031756366801 -0.1961960319708255 0.0918298459672651
N -0.0234458131843719 0.1760433708723037 -0.4621748624638069 0.5593901217632046
O 0.2768276494909458 0.1127385459722915 -0.6402389990831963 -0.9963138680841535
N -1.2834082620186051 0.2286731572718850 -0.5024179706191827 0.9989733053171830
O -1.2640958658090795 0.2103781524678143 -0.4040578518569916 -0.8354521971080898
N -1.1154749382109121 0.2855689937142266 0.3591681794110178 0.2899344186932475
O -1.0991972821784215 0.2903784659755543 -0.0282882549788486 -0.8678253524624289
N -0.0258544958560984 0.1875397027292265 0.3762989962309941 0.9219570073558310
O -0.2398962583819208 0.0461037681856776 0.3072280892136360 -0.9704818863270434
O -0.2268913141406642 0.7182263503146382 0.2612726125773259 -0.3320651923316272
N -0.7497265182244491 0.2733938806928375 0.5729950783027509 0.9769593393400061
O -0.2515986225159163 -0.0989314328976980 -0.6491308501306096 -0.1970026432733326
O -0.0740790450790687 -0.5190891135126904 0.4242414105840968 -0.1946060569702309
N -0.2294538607899218 -0.3546078037864075 0.3015704515264614 0.1283355164991325
N -0.9653229478723580 -0.7659181535781849 -0.0204015709350424 0.1235072004109040
