21
s                      x[A]                      y[A]                      z[A]                      q[e]
N 1.4625624389348431 0.0147824062364430 0.1240055042883480 0.0707249461841811
O 0.5225172925559889 -0.1675714547729196 0.2854618293364063 -0.3496602100029151
N 0.8402773704385729 0.2745803792916143 0.2297099106282283 0.9824851761690530
N -0.6610254262886580 0.3513946804436178 0.0732176497453746 0.1071394941056757
O 0.7363079252354094 0.4296251208806884 0.1995416245738323 -0.8194842575378962
N -0.0436740525111280 -0.0410859693184702 -0.5949751089834563 0.3116552922920345
N 0.9809567673127411 0.0262777828850073 -0.2183923510718393 0.0918298459672651
N -0.0438728415387355 0.1142320351499279 -0.5466501135155258 0.5593901217632046
O 0.2712458173436268 0.0806971570800213 -0.7059271042360689 -0.9963138680841535
N -1.2380485138269659 0.0942078402944117 -0.4182434800797937 0.9989733053171830
O -1.2107300697905758 0.0764251305363360 -0.3217073205665361 -0.8354521971080898
N -1.0155152243026895 0.1551115215996047 0.4309077855210456 0.2899344186932475
O -1.0266451271574843 0.1648700842480025 0.0438620088356033 -0.8678253524624289
N -0.1090589550708685 0.0850436007357742 0.3563452154030627 0.9219570073558310
O -0.3217832455425544 -0.0688632357422056 0.3121018048013491 -0.9704818863270434
O -0.3406247434594497 0.6003464654410713 0.2259404116607745 -0.3320651923316272
N -0.8201146293777684 0.1559557161954984 0.6021232166810757 0.9769593393400061
O -0.3980117188640749 -0.2730305638850878 -0.6299452800035388 -0.1970026432733326
O -0.1471621121747009 -0.5013133221006332 0.4899908160841384 -0.1946060569702309
N -0.3825266835730391 -0.2589729612012682 0.3692659571725088 0.1283355164991325
N -0.9704290515886678 -0.3475197609157875 0.0827609968791052 0.1235072004109040
