21
s                      x[A]                      y[A]                      z[A]                      q[e]
N        1.9247940543420317        1.3933182865080205        0.5132578509825230        0.0707249461841811
O        1.6645799821269240       -0.0123019919566603       -0.1905326008900255       -0.3496602100029151
N        1.4548979774174244        0.1027799727203406        0.3017758250071019        0.9824851761690530
N        3.0407714051044858       -0.6570012093908482        0.0971056572027315        0.1071394941056757
O        1.4859862680500295       -0.0384730809590372        0.4235942797893300       -0.8194842575378962
N        0.5112687753872308       -0.6235131611958278       -0.0355067253888471        0.3116552922920345
N        0.7939008358166777       -1.9398741458522513       -0.5028598301666877        0.0918298459672651
N        1.2753994154118238       -0.9545935045235676       -0.1813774444565384        0.5593901217632046
O        0.9739597206914724       -0.7725237540836600       -0.1392083394432085       -0.9963138680841535
N       -0.7418774693405975        0.8777458151000341        0.0191366898350176        0.9989733053171830
O       -0.7150914704293274        0.9751128275223788        0.0326986734196881       -0.8354521971080898
N       -0.5573709952589133        1.7331149588351371       -0.0735411617928027        0.2899344186932475
O       -0.5580886171963492        1.3458862628778354       -0.0823138226502357       -0.8678253524624289
N       -0.5166533335546613       -0.4098922926412272       -0.0035005508674327        0.9219570073558310
O       -0.6233818817605957       -0.2369313620622365        0.1685167475188536       -0.9704818863270434
O       -0.8115217195293305       -0.2589622767560623       -0.4793555023202604       -0.3320651923316272
N       -0.6133130623956524        0.3372763833031763       -0.0620786398009332        0.9769593393400061
O       -1.4043147563881573       -0.5633813647644683        0.6159248874131668       -0.1970026432733326
O       -1.5705393870092710       -0.5445445696231463       -0.3748683638357004       -0.1946060569702309
N       -2.7393019537594188       -0.0420098921032844        0.3055482173788374        0.1283355164991325
N       -1.6548683997275562       -1.9280306113742136        0.1567920034235049        0.1235072004109040

        RMSE         4.354910342E-01 kcal/mol

Coordinates in bohr
s                   x[bohr]                   y[bohr]                   z[bohr]                      q[e]
+        3.6373336106160319        2.6329899670923416        0.9699167700980145        0.0707249461841811
-        3.1456002801393730       -0.0232473955956730       -0.3600544336533106       -0.3496602100029151
+        2.7493587178014605        0.1942259996234705        0.5702736605475103        0.9824851761690530
+        5.7462251657710564       -1.2415523498432748        0.1835030973457538        0.1071394941056757
-        2.8081070728057198       -0.0727035862151467        0.8004771771123897       -0.8194842575378962
+        0.9661579619800803       -1.1782691102785539       -0.0670979865967611        0.3116552922920345
+        1.5002551504655817       -3.6658308535171886       -0.9502673585092761        0.0918298459672651
+        2.4101555956973648       -1.8039202846905311       -0.3427536953582967        0.5593901217632046
-        1.8405171293342846       -1.4598583206286508       -0.2630656359274326       -0.9963138680841535
+       -1.4019452357014661        1.6586991983058108        0.0361631027360160        0.9989733053171830
-       -1.3513270337623540        1.8426961854380923        0.0617915374289981       -0.8354521971080898
+       -1.0532785313131998        3.2751126161325268       -0.1389726547363803        0.2899344186932475
-       -1.0546346402365741        2.5433564328550480       -0.1555505811484527       -0.8678253524624289
+       -0.9763333022231209       -0.7745841740279324       -0.0066150824276816        0.9219570073558310
-       -1.1780210281000605       -0.4477353848293160        0.3184505003635583       -0.9704818863270434
-       -1.5335537947710360       -0.4893677798939714       -0.9058506161165567       -0.3320651923316272
+       -1.1589937170936115        0.6373599930279407       -0.1173116274647096        0.9769593393400061
-       -2.6537702835126464       -1.0646364835915021        1.1639293510643327       -0.1970026432733326
-       -2.9678893106919420       -1.0290400996930489       -0.7083985407479535       -0.1946060569702309
+       -5.1765304675368453       -0.0793871906352410        0.5774024489678566        0.1283355164991325
+       -3.1272480491597512       -3.6434498169962803        0.2962939451322705        0.1235072004109040
