21
s                      x[A]                      y[A]                      z[A]                      q[e]
N       -1.7082731577933259        0.6740109963715299       -1.6049702194726931        0.0707249461841811
O       -1.6491938190791751        0.1891856968542298       -0.0882273281617315       -0.3496602100029151
N       -1.4337531423111018       -0.1172284735458112       -0.4873183689957615        0.9824851761690530
N       -3.1165898787969204       -0.3118923403091219        0.0299192325476600        0.1071394941056757
O       -1.4885763120557560       -0.2975303080748041       -0.4716879039238392       -0.8194842575378962
N       -0.6363184384824572       -0.3861588187367419        0.2548474818147430        0.3116552922920345
N       -1.0838665815154696       -0.9876434512271397        1.6072566198669413        0.0918298459672651
N       -1.4177860696040150       -0.5394895599066524        0.5387244283343189        0.5593901217632046
O       -1.0954060314932565       -0.4290187354413891        0.4404349326308383       -0.9963138680841535
N        0.9004483555226838        0.8178821778327504       -0.0578292875824374        0.9989733053171830
O        0.8922941847803215        0.9188423866729938       -0.0688881290641352       -0.8354521971080898
N        0.9143941374359364        1.6916900592180601        0.0449009261342255        0.2899344186932475
O        0.8370862799466594        1.3125667591160561        0.0625801801552762       -0.8678253524624289
N        0.4212124556236932       -0.4042160461036717        0.0338284184005209        0.9219570073558310
O        0.5297867160286351       -0.2548644147024622       -0.1580104140300655       -0.9704818863270434
O        0.8185531769953223       -0.3233258535859616        0.4482464410043857       -0.3320651923316272
N        0.6778843948699755        0.3061410678801968        0.0572338069102484        0.9769593393400061
O        1.1901876804656839       -0.7435111779889338       -0.6605131983392479       -0.1970026432733326
O        1.4639694647822399       -0.7573254129539180        0.3061870762471417       -0.1946060569702309
N        2.6331968263438927       -0.5152413160263266       -0.5080491500683666        0.1283355164991325
N        1.1963156615634498       -2.1310771328131741       -0.1950961652346058        0.1235072004109040

        RMSE         1.011202483E+00 kcal/mol

Coordinates in bohr
s                   x[bohr]                   y[bohr]                   z[bohr]                      q[e]
+       -3.2281684157003907        1.2736961886891416       -3.0329541543193326        0.0707249461841811
-       -3.1165246458574880        0.3575091539083829       -0.1667254870065652       -0.3496602100029151
+       -2.7094007704825445       -0.2215297091070613       -0.9208982533067885        0.9824851761690530
+       -5.8895013162999863       -0.5893911038123313        0.0565391553989613        0.1071394941056757
-       -2.8130015466294269       -0.5622507962844735       -0.8913609551073209       -0.8194842575378962
+       -1.2024675773108291       -0.7297344083427550        0.4815919443924586        0.3116552922920345
+       -2.0482109956004497       -1.8663756324212601        3.0372748248776005        0.0918298459672651
+       -2.6792273760408780       -1.0194875157673471        1.0180416266456958        0.5593901217632046
-       -2.0700173956968873       -0.8107279126744732        0.8323013987567537       -0.9963138680841535
+        1.7016007820567542        1.5455733189968939       -0.1092815155611459        0.9989733053171830
-        1.6861916325734683        1.7363604632739802       -0.1301796972264070       -0.8354521971080898
+        1.7279544904781650        3.1968309010816687        0.0848504531730981        0.2899344186932475
-        1.5818638124775075        2.4803916961091232        0.1182594013752829       -0.8678253524624289
+        0.7959761817603391       -0.7638576226513744        0.0639264460343827        0.9219570073558310
-        1.0011517981998193       -0.4816239429127610       -0.2985964074870229       -0.9704818863270434
-        1.5468413236445662       -0.6109973125573442        0.8470630102094787       -0.3320651923316272
+        1.2810158510259633        0.5785227740487663        0.1081562201777052        0.9769593393400061
-        2.2491287539740563       -1.4050324976156137       -1.2481890471113850       -0.1970026432733326
-        2.7665013444715125       -1.4311376183321571        0.5786097172617717       -0.1946060569702309
+        4.9760208362146940       -0.9736649758102226       -0.9600737519008371        0.1283355164991325
+        2.2607089599508163       -4.0271521332428168       -0.3686783204204718        0.1235072004109040
