25
s                      x[A]                      y[A]                      z[A]                      q[e]
N 1.1887858811209322 -2.0565828266888677 -0.6226135671535591 0.1158659338886357
O 1.6627530738883605 -0.8061414158854742 0.3844306014005813 -0.2341991647481463
N 3.2301442363656050 -1.0296012316106415 0.0819356495625473 0.0569852111266852
N 2.1019717553977215 -0.6043330550026478 0.0833202644978633 0.3189271149812888
O 1.8668115946857269 -0.4967002188710665 -0.3175799000827317 -0.2877498234141676
N 1.5422229054172951 -0.0114410530018125 0.3430426529809170 0.5692545008206258
O 1.0216154545748859 0.5277727725442366 -0.0745389384717261 -0.2058946535748549
O 1.2412623686997184 -0.0071589865060709 0.3839928983015064 -0.9992971180892700
N 0.7677844209533705 0.2696163615886756 0.2683191334653075 0.6691943173322236
N 1.6039481677658487 1.3068956093656166 0.7913130406147052 0.0628076875181509
N -1.1774299106006549 1.3687299428111905 0.9165986220114442 0.7576134719858190
O -1.0050857482496274 1.1833093842755666 0.6756143372343857 -0.9235083265987739
N -0.9004069528979760 0.8180449607534720 0.4541800878135451 0.9955526175656415
O -1.1131284620134090 1.2009578959329499 0.8388718187062336 -0.9936641819349231
O -0.3597559034002573 0.0203992063011757 -0.0015188297118418 -0.9934394819660318
N -0.5163241228814877 0.4238855421111998 0.1144479382479011 0.8475065253219278
N -0.2034001613775697 -0.1002867683114970 -0.2049915112071558 0.9207393412409772
O -0.4450944317750778 0.1470562240536081 -0.3985538879028623 -0.6738758902636315
N -2.5244733906107890 -0.3134055422434560 -0.9191060650116123 0.1207489421105395
N -0.7236181791648921 -0.3570954775498892 -0.6883091680887082 0.4308753055723465
O -1.0997114863144650 -0.4281705546370593 -0.4373687948952626 -0.7095764258838037
N -1.2857942514945000 -0.1855892838699902 -0.5106150771274446 0.9977500474782615
O -1.1479454764033612 -0.2142383835165318 -0.7017066616269807 -0.9963537733476465
O -0.8581181675168521 -1.6248564747008778 -1.3296018733573807 -0.1586318904925156
N -0.8762015036502235 -1.4709094323611742 -1.4166299220527356 0.3123697133706422
