10
s                      x[A]                      y[A]                      z[A]                      q[e]
C -1.2411849624240481 -0.5099938349981040 -0.8327456884248812
C -0.4350971717613596 0.1767553048123884 -0.0269701695694545
C 1.0102758655936814 0.0926587162422095 0.1887426509336220
C 1.7683552463397514 -0.9655776106435111 -0.1251951272650640
H -2.3060554252122256 -0.3190805806002965 -0.8517842556344520
H -0.8400460060639228 -1.2672206516207281 -1.4942295482071011
F -1.0125683024544228 1.1862433317571199 0.7766655421496390
H 1.4559229800131930 0.9756508959262519 0.6377308010994167
H 1.3492271063711430 -1.8769241240094312 -0.5418475352602820
H 2.8399711889691757 -0.9516703620087945 0.0371563883189892
