25
s                      x[A]                      y[A]                      z[A]                      q[e]
N 1.9861152258714245 1.3580982834793063 -0.5059630569046358 0.1158659338886357
O 1.8117818996001738 -0.3081808215999510 -0.4186213524238668 -0.2341991647481463
N 3.3502540854805214 -0.5319112990922265 0.0211628938939684 0.0569852111266852
N 2.1530840544258298 -0.4073466903406389 0.0311057302078885 0.3189271149812888
O 1.9173400918558339 -0.1441770410996559 0.3506554222997809 -0.2877498234141676
N 1.3770551438142742 -0.7714176702122240 0.0695441220382143 0.5692545008206258
O 0.7082836357127765 -0.6837942317837369 0.5986097747580239 -0.2058946535748549
O 1.0971058244113712 -0.6963263990753279 -0.0283732883450036 -0.9992971180892700
N 0.5625578528382618 -0.6330772166252434 0.1268735818145174 0.6691943173322236
N 0.8459877509287160 -1.9746080527080563 0.5346246242862021 0.0628076875181509
N -1.7052135590558217 -1.0840012001996215 -0.1325387303160176 0.7576134719858190
O -1.4544801000423018 -0.8673480615308616 -0.0221234396398408 -0.9235083265987739
N -1.1913306426035222 -0.5172429642693466 -0.0503371302022146 0.9955526175656415
O -1.5715117873443738 -0.9442885556937722 -0.1599346929725937 -0.9936641819349231
O -0.3341990661481697 0.1182662207984743 -0.0660241368675538 -0.9934394819660318
N -0.6540464008991803 -0.1729962528448614 0.0561475614007778 0.8475065253219278
N -0.1275068990459640 0.2722831651360149 0.0530187801664575 0.9207393412409772
O -0.4360351819255076 0.3176126035266988 0.2963389874898838 -0.6738758902636315
N -2.0870628137738683 1.7202221312982553 -0.0382021034411937 0.1207489421105395
N -0.4554651307716859 0.9447753145754970 0.1534705836692102 0.4308753055723465
O -0.7837799937356243 0.9711133345890504 -0.1646582610170233 -0.7095764258838037
N -1.0496838490492941 0.9204811142123527 -0.0024156568467965 0.9977500474782615
O -0.8982290449263814 1.0128664065192494 0.1569108188617271 -0.9963537733476465
O 0.0002401293084473 2.2629664981683515 -0.1517388973415431 -0.1586318904925156
N -0.0734184758858814 2.2207916734399378 0.0045211394528045 0.3123697133706422
