25
s                      x[A]                      y[A]                      z[A]                      q[e]
N 0.0678611806238296 -0.0109504789581401 0.2444416557315500 0.1158659338886357
O -0.1650299503899006 0.4206989701892486 0.3088927350198488 -0.2341991647481463
N -0.0841657339544784 -0.0164474330263321 -0.3919457369157236 0.0569852111266852
N -0.5130561680334954 -0.0027253643852063 0.1410682314839401 0.3189271149812888
O -0.2384755443808196 -0.3687276019448561 0.2737080788213298 -0.2877498234141676
N 0.0073695519670770 0.1019462615626202 -0.5542281300051600 0.5692545008206258
O -0.1487079526337438 -0.4830723693311172 0.0525969485496227 -0.2058946535748549
O -0.0465449530714013 0.1763097360544164 -0.2624038001434730 -0.9992971180892700
N -0.1971503760232267 -0.0252759939852647 0.2381207084569827 0.6691943173322236
N 0.0174325066433459 -0.0104920597601132 0.3922303491137824 0.0628076875181509
N 0.0556939524602603 0.0051279415267009 0.2775100628763567 0.7576134719858190
O 0.0315175963539908 -0.0731123694487414 -0.0620357277364896 -0.9235083265987739
N 0.0992848900981951 -0.0071197405332338 -0.4906028697823717 0.9955526175656415
O 0.0633146696465424 0.0501785991172406 0.0876188085129577 -0.9936641819349231
O -0.0438795516984822 0.1125093881721395 -0.1276748327450008 -0.9934394819660318
N -0.0334953735013852 -0.0499509817145537 0.2913250085644892 0.8475065253219278
N -0.0824337972134069 0.0191823441841398 -0.3930382066187942 0.9207393412409772
O 0.1562515181288170 -0.2497653560218885 -0.2282788748430156 -0.6738758902636315
N -0.0680086884988904 0.0212817293058462 0.2173223009591519 0.1207489421105395
N 0.2680275081023993 0.0744349050689083 -0.4851561554889258 0.4308753055723465
O 0.3514111328743626 -0.2048485310950600 -0.1319731494325802 -0.7095764258838037
N 0.4497973999656673 -0.0101221427722960 0.0960464127928897 0.9977500474782615
O 0.3092108475662539 0.1243153437105556 -0.0418684497160489 -0.9963537733476465
O -0.0229586213206586 -0.3669985439937819 -0.1425304013002779 -0.1586318904925156
N -0.0418497083088722 -0.2008738279726520 -0.0819729028519438 0.3123697133706422
