21
s                      x[A]                      y[A]                      z[A]                      q[e]
N       -2.0188469287442037        1.4225676925510542        0.3678225118046066        0.0690680479201058
O       -1.7535781505736210       -0.4826271090960279        0.3752322614379788       -0.3117950550350966
N       -1.9109399727041747       -0.5106982226355417        0.0259012112661954        0.5776243102962968
N       -3.2476792839206010       -0.7292319685547779        0.0738139003736214        0.0604184539076988
O       -1.8089087210493422       -0.3943792266822855       -0.2890987041401165       -0.3968494342195521
O       -0.5490720889395955       -0.9707173173301293       -0.1832556382494840       -0.9828651838991298
N       -0.3294893505307631       -0.9518900734145375       -0.1708793403438107        0.7759263489545838
N       -0.9259748214777952       -1.5002357959571067       -0.2474940932299484        0.9970342621901004
O       -0.9565374135416893       -1.4639568347513721       -0.5215064525913445       -0.3970377457969525
O       -0.9412255757545429       -1.5657456840383857        0.0208638834579024       -0.3893757401670396
N        0.5223471406392101        1.7845225463187597        0.0455565042299123        0.1691966627363242
O        0.5224819809994118        1.3339015372943852        0.0003155179252985       -0.6800109224217911
O        0.6967408434634377       -0.3888551259335303        0.2949113136857952       -0.9821368279659007
N        0.6517944023709308       -0.5550842845528353        0.1688788457208105        0.8921713087406896
O        0.9130093759405661       -0.3056852069155198       -0.3669725917649573       -0.3335771210350215
N        0.6231194587320134        0.2700756423630635        0.0262428615506217        0.9988617281482304
N        2.9552246317613871        0.0323386199361554        0.2184783646348467        0.0655379221577991
N        1.6864404092998089       -0.3808567102493653        0.0712860470025627        0.9908754307264420
O        1.5392838593950195       -0.4579402825160213        0.4108364963739792       -0.6595771554465193
O        1.6962407002263182       -0.4547323579008887       -0.2939797480990933       -0.5578053818499882
N        1.5982810495518238       -2.0807883804888956        0.1077971951716717        0.0943160920587207

        RMSE         1.311641161E+00 kcal/mol

Coordinates in bohr
s                   x[bohr]                   y[bohr]                   z[bohr]                      q[e]
+       -3.8150677845482202        2.6882633338459865        0.6950838100886855        0.0690680479201058
-       -3.3137824441709927       -0.9120330569129493        0.7090862075539706       -0.3117950550350966
+       -3.6111531906007479       -0.9650797735392614        0.0489461956107320        0.5776243102962968
+       -6.1372243899329311       -1.3780487024970052        0.1394880559579738        0.0604184539076988
-       -3.4183420687354489       -0.7452687279993698       -0.5463173740495814       -0.3968494342195521
-       -1.0375958712288578       -1.8343898749930825       -0.3463029672374988       -0.9828651838991298
+       -0.6226446337581151       -1.7988115402954215       -0.3229151537486990        0.7759263489545838
+       -1.7498388116627381       -2.8350347779671639       -0.4676960538731289        0.9970342621901004
-       -1.8075937403475888       -2.7664774771722165       -0.9855043680566981       -0.3970377457969525
-       -1.7786585604524459       -2.9588305249501752        0.0394270256489056       -0.3893757401670396
+        0.9870930382241097        3.3722588772470874        0.0860893162277953        0.1691966627363242
-        0.9873478495755490        2.5207085838135592        0.0005962424664868       -0.6800109224217911
-        1.3166493745663812       -0.7348296904947860        0.5573016141651358       -0.9821368279659007
+        1.2317129105875197       -1.0489572743505600        0.3191347667957775        0.8921713087406896
-        1.7253376705028356       -0.5776613216742398       -0.6934776939852101       -0.3335771210350215
+        1.1775251204470267        0.5103689972232861        0.0495918210789825        0.9988617281482304
+        5.5845651932359832        0.0611111349546043        0.4128642734977714        0.0655379221577991
+        3.1869105004816416       -0.7197148754141478        0.1347111054013574        0.9908754307264420
-        2.9088249235943224       -0.8653817157700642        0.7763684604894688       -0.6595771554465193
-        3.2054303662825538       -0.8593196168163487       -0.5555412103383679       -0.5578053818499882
+        3.0203134551622393       -3.9321201641589494        0.2037071759669845        0.0943160920587207
