21
s                      x[A]                      y[A]                      z[A]                      q[e]
N -1.7587991883930394 0.7551212935724743 -1.6291885951291942 0.0707249461841811
O -1.6776097435827335 0.3815804842389823 -0.0749194450098963 -0.3496602100029151
N -1.4713114994704846 0.0565590879200373 -0.4639954199984664 0.9824851761690530
N -3.1460677785143738 -0.0687382173129967 0.1117580853462087 0.1071394941056757
O -1.5261297706711678 -0.1226775392750180 -0.4389388534330876 -0.8194842575378962
N -0.6151959813399539 -0.0015336167090212 0.5223177864284818 0.3116552922920345
N -1.0730756403047654 -0.7181826184146100 1.6622662243725659 0.0918298459672651
N -1.4401905853373118 -0.1075545792813389 0.6737494684313408 0.5593901217632046
O -1.0955266655320772 -0.1098267299239111 0.5901125345329596 -0.9963138680841535
N 1.1260027307560692 -0.6829016016316526 -0.0758538917960897 0.9989733053171830
O 1.1519010954228288 -0.7813736151456070 -0.0720737454267549 -0.8354521971080898
N 1.3210385877341098 -1.5217342543268004 -0.2564334877636043 0.2899344186932475
O 1.1466638098290809 -1.1810260319626806 -0.1969786176803964 -0.8678253524624289
N 0.3562236475886816 0.3504266892103312 0.1990511180423018 0.9219570073558310
O 0.5813847233981664 0.2477372365247014 0.2973047882050744 -0.9704818863270434
O 0.4992477432006351 0.3629877042663017 -0.3626885890638651 -0.3320651923316272
N 0.7470061955189191 -0.2594834619851594 -0.0162025316296002 0.9769593393400061
O 1.2427115666428201 0.9054755458754724 0.5192804470595077 -0.1970026432733326
O 1.0129475769668272 0.9804979247884904 -0.4560332825203779 -0.1946060569702309
N 2.4450642885800420 1.1000395092791520 -0.3019592799932382 0.1283355164991325
N 0.6622474276916580 2.2257202111151435 0.2748888099074669 0.1235072004109040
