25
s                      x[A]                      y[A]                      z[A]                      q[e]
N 1.8423607321648434 1.1203573522961996 -1.0873771760222752 0.1158659338886357
O 1.7876620517358552 -0.3937977425714750 -0.3663220354333235 -0.2341991647481463
N 3.3666096272920698 -0.3471522562292579 0.0298526501269138 0.0569852111266852
N 2.1656487199321171 -0.2779511450982322 0.0844338019007698 0.3189271149812888
O 1.9305641982013331 0.0491242923997174 0.2653746209833641 -0.2877498234141676
N 1.4406489203173960 -0.5679905886025222 0.3206505325852262 0.5692545008206258
O 0.6971752797414172 -0.5866998558047631 0.7807611325919508 -0.2058946535748549
O 1.1588999263276953 -0.5664893592887006 0.2009582228473902 -0.9992971180892700
N 0.6060503563663672 -0.5251168232060491 0.2776006221935804 0.6691943173322236
N 0.9757600087670658 -1.5779218741747107 1.2299715229323729 0.0628076875181509
N -1.5821101284945696 -1.2039963152461661 -0.2628253820985169 0.7576134719858190
O -1.3636774739687278 -0.9534501221003178 -0.1185259917124619 -0.9235083265987739
N -1.1377324220839553 -0.5897430617738277 -0.1152762290608755 0.9955526175656415
O -1.4578658867638727 -1.0408025231398965 -0.2738969442267847 -0.9936641819349231
O -0.3331216925240905 0.1304808208295977 -0.0284677670041355 -0.9934394819660318
N -0.6439856624418729 -0.1937375826726677 0.0594284221183983 0.8475065253219278
N -0.1515922026936422 0.3061022291844243 0.1220233506488049 0.9207393412409772
O -0.4966873061880410 0.3156655616328014 0.3281369030499326 -0.6738758902636315
N -2.2184082561944072 1.5751605796020733 -0.1237325759355972 0.1207489421105395
N -0.5483463217787546 0.9330411019822313 0.2226070126660838 0.4308753055723465
O -0.8485345444064742 0.9508951355358339 -0.1401211506578803 -0.7095764258838037
N -1.1292654124686350 0.8653815794079978 -0.0016172829200085 0.9977500474782615
O -1.0027018845874200 0.9689515852251467 0.1760746551656938 -0.9963537733476465
O -0.1846143464332449 2.2970541505953426 0.0119930294615765 -0.1586318904925156
N -0.2493772690175464 2.2371295624701699 0.1662641884141907 0.3123697133706422
