13
s                      x[A]                      y[A]                      z[A]                      q[e]
C 1.6162504864158134 -1.8988713976758176 0.3661826563004747
C 1.4188665677885921 -0.4176259090288248 0.2225319147896021
H 1.7585165889092353 -2.1563775841301003 1.4230214181414271
H 2.4902364266161774 -2.2165914048865965 -0.2030953437536273
H 0.7285530097188034 -2.4368582432933485 0.0150570206027688
C 0.1890842429202761 0.1893878198490736 0.9065237966948282
O 2.2079353038937746 0.3101553356026925 -0.3822594966311755
C -0.9492329336200854 0.4368144083677139 -0.0464694327487222
H 0.4683622882780608 1.1509045415109707 1.3443829690562101
H -0.1845507191367821 -0.4680147157503490 1.6946993399005463
F -0.6479365194257154 1.3518166832206078 -1.0378685277511079
F -2.0691779504752241 0.9189362900955138 0.6261225913838322
F -1.3467082558087451 -0.7388122455255678 -0.6892103661613013
