30
s                      x[A]                      y[A]                      z[A]                      q[e]
N        2.3514412289382007       -1.4605034059390987       -0.4295657623868142        0.2137068255539760
N        2.0830867123059629       -0.8715087426785421        0.1439971110919839        0.4524136045707061
O        2.4257902731667893       -1.0712936815949203        0.4459406504913991       -0.5303393512711568
N        2.6392815295164791       -1.4683672122074991        1.0024043989025226        0.2065219334641430
N        3.4988261417485327       -0.5542435327945699       -0.8526461674429582        0.0640972179527254
N        1.7226231888641215       -1.7693198092805318       -0.7777212940077350        0.2729192555687945
O        1.9962191216076042       -1.4574791371467841       -0.5676460416181520       -0.5760168259183410
O        2.0788661442819487        1.3705864664047602       -0.2667843152513952       -0.7855321009151053
O        1.5816475712368996        1.5723595694150971       -0.0048603779249250       -0.7445427033607991
N        1.8499126948508435        1.4876804887903818       -0.1590723697935601        0.9977538426035523
N        1.7876455356085665        0.0372034032203896        0.0290719380811198        0.2084365764815679
N        1.2119721713310909        0.4391871975922809        0.3456832834424129        0.3300899125146088
N        0.1254640058759389        0.4296365056674493        1.2562772767650916        0.6266498413516267
O        0.3271905940929800       -0.5309472451268977        0.8727594752414356       -0.5811225412727979
N       -0.0145503321782235        0.8055472319071044        1.7325549700074037        0.5003074335780895
O       -0.0162573815038737        0.7065504819449843        1.6297269877380063       -0.5967490130385100
N        0.1238259177574513       -0.8938932376552133        1.3781673136472110        0.9708061175491041
O        0.0806619825747986       -1.1053248897163157        1.0814033365877349       -0.1568654630532827
O        0.1089574436178209       -0.7466691253088248        1.4190934329518219       -0.7813807259506527
N       -0.6390032437126826       -0.2865039869410591       -0.2667688345041330        0.1400529194232831
N       -0.8128196684926169        0.3649286519484373       -0.1689293651497895        0.1778327620465852
N       -1.1926240585086159        0.7304415002025546       -0.4249198673780208        0.7120624373414439
O       -1.2084787799049195        0.9126979318617368       -0.4977947925019135       -0.9970019554920370
N       -1.8125158078612096       -0.1880338522917574        0.4713646589452409        0.9931708722557875
N       -2.4666446273124980       -0.3693919408577206        0.8693436649213051        0.8506195801821621
O       -2.1806728237248221       -0.3139602809461543        0.8093666779972066       -0.8089940633040810
O       -2.3460615465364318       -0.3193412075028761        0.7199015830372247       -0.9883399134133223
N       -0.9321465427773853       -1.2925520948036278       -1.3457992279246422        0.2529889584625400
N       -1.0696519027893356       -0.6928830530702308       -0.7697774293680457        0.5419198115726583
O       -0.9662928147535198       -1.0117735760063220       -1.0437761954762259       -0.9654652454832693

        RMSE         4.374053564E+00 kcal/mol

Coordinates in bohr
s                   x[bohr]                   y[bohr]                   z[bohr]                      q[e]
+        4.4435799228031803       -2.7599514425232545       -0.8117616437845724        0.2137068255539760
+        3.9364633818386325       -1.6469128396045447        0.2721151028209752        0.4524136045707061
-        4.5840792540847630       -2.0244516581478211        0.8427056976372552       -0.5303393512711568
+        4.9875192587655865       -2.7748118826741899        1.8942697808799474        0.2065219334641430
+        6.6118231684970166       -1.0473684837879413       -1.6112677383884479        0.0640972179527254
+        3.2552860443160050       -3.3435298678874830       -1.4696802476112856        0.2729192555687945
-        3.7723074262403671       -2.7542364027760109       -1.0726955548585435       -0.5760168259183410
-        3.9284876641793813        2.5900330527640034       -0.5041492903929389       -0.7855321009151053
-        2.9888807366332903        2.9713289569373305       -0.0091847831443293       -0.7445427033607991
+        3.4958283492757340        2.8113086860010563       -0.3006032130373792        0.9977538426035523
+        3.3781604716975604        0.0703042430215122        0.0549380009095845        0.2084365764815679
+        2.2902954754922136        0.8299435212567425        0.6532467318551712        0.3300899125146088
+        0.2370926097083562        0.8118953292101893        2.3740199907220081        0.6266498413516267
-        0.6183006136615720       -1.0033448803561602        1.6492763816046054       -0.5811225412727979
+       -0.0274961428512786        1.5222636494250910        3.2740543906147948        0.5003074335780895
-       -0.0307219985594051        1.3351869046862563        3.0797376660922002       -0.5967490130385100
+        0.2339970717950482       -1.6892134045671399        2.6043587778511674        0.9708061175491041
-        0.1524290558028210       -2.0887613212157143        2.0435561373071081       -0.1568654630532827
-        0.2058997277676944       -1.4110001531688310        2.6816979347146948       -0.7813807259506527
+       -1.2075411238961520       -0.5414140691703478       -0.5041200360203959        0.1400529194232831
+       -1.5360065628364692        0.6896152075150687       -0.3192302346805624        0.1778327620465852
+       -2.2537328412132767        1.3803343860513768       -0.8029821746103214        0.7120624373414439
-       -2.2836939224477271        1.7247491264904526       -0.9406958245077245       -0.9970019554920370
+       -3.4251584749206287       -0.3553324831462122        0.8907501106263407        0.9931708722557875
+       -4.6612827944526156       -0.6980496011724077        1.6428214356030464        0.8506195801821621
-       -4.1208744060686895       -0.5932989452600274        1.5294813564863350       -0.8089940633040810
-       -4.4334137964218918       -0.6034674227534345        1.3604168292238916       -0.9883399134133223
+       -1.7615016746416179       -2.4425694620656588       -2.5431919606301707        0.2529889584625400
+       -2.0213491458466848       -1.3093592072737981       -1.4546685190645641        0.5419198115726583
-       -1.8260287768819079       -1.9119749596270383       -1.9724511457224012       -0.9654652454832693
