30
s                      x[A]                      y[A]                      z[A]                      q[e]
N 2.3514746150110368 -1.4604100283050743 -0.4295428246092590 0.2137068255539760
N 2.0831405262136240 -0.8712776276420091 0.1440675231813010 0.4524136045707061
O 2.4257248790654060 -1.0715588917382470 0.4458658021332957 -0.5303393512711568
N 2.6393181564071417 -1.4682625987163402 1.0024331674819571 0.2065219334641430
N 3.4988307379505033 -0.5542203869743678 -0.8526363926929443 0.0640972179527254
N 1.7226727253324672 -1.7691985877730532 -0.7777055552726220 0.2729192555687945
O 1.9961321963719425 -1.4577369608725466 -0.5677038471337021 -0.5760168259183410
O 2.0788963349763669 1.3703026402975493 -0.2670070485201881 -0.7855321009151053
O 1.5816885763024822 1.5720681152329863 -0.0051110025718106 -0.7445427033607991
N 1.8498835114998429 1.4880539948088460 -0.1587939160760853 0.9977538426035523
N 1.7876559714703344 0.0373106030943904 0.0291211187395318 0.2084365764815679
N 1.2119813075980836 0.4393740036452716 0.3457796185463307 0.3300899125146088
N 0.1254979713002266 0.4300792792924174 1.2564689701756901 0.6266498413516267
O 0.3271522812996276 -0.5313648022687857 0.8726468148834505 -0.5811225412727979
N -0.0145178457277948 0.8059150009131075 1.7327251995599302 0.5003074335780895
O -0.0162949192493285 0.7061274627006980 1.6295406548054685 -0.5967490130385100
N 0.1238862731648271 -0.8931721510729396 1.3783434142449560 0.9708061175491041
O 0.0806505571991207 -1.1054525112646008 1.0813771221774711 -0.1568654630532827
O 0.1089079196737525 -0.7472775444579541 1.4189531824277086 -0.7813807259506527
N -0.6390011969052372 -0.2864253235151387 -0.2667462482975694 0.1400529194232831
N -0.8128124186931821 0.3650236539202358 -0.1688868618529534 0.1778327620465852
N -1.1925879764720422 0.7307642543192328 -0.4247497341349953 0.7120624373414439
O -1.2085430638207886 0.9122976215340548 -0.4980371231081944 -0.9970019554920370
N -1.8125043056022889 -0.1875282664992682 0.4715294019467334 0.9931708722557875
N -2.4666483569169797 -0.3689886150796676 0.8694742340019008 0.8506195801821621
O -2.1806858005788006 -0.3143795024640368 0.8092436938564052 -0.8089940633040810
O -2.3460771486126215 -0.3198021032726344 0.7197642462913009 -0.9883399134133223
N -0.9321621927718257 -1.2924413105060351 -1.3457994502192752 0.2529889584625400
N -1.0696653362743358 -0.6926237549850794 -0.7697340011120751 0.5419198115726583
O -0.9662639206471348 -1.0121905848124158 -1.0438165705319067 -0.9654652454832693
