24
s                      x[A]                      y[A]                      z[A]                      q[e]
N -1.0940194905559797 0.9082198915018924 -0.2661367265343939 0.6959175615854226
O -1.0942185595138212 0.9986585558884709 -0.5718535730792520 -0.4294665048044459
N -1.2346066864626022 1.5281440447915273 0.8720611976719210 0.7289443612696791
O -1.1640435388975485 1.4440334817469598 0.6890217522415134 -0.8899528116456963
N -2.1029998726295229 0.9839157484627823 -0.4214641730546399 0.4821174903544280
O -1.8876049088042595 0.9522104504735235 -0.2805224891321229 -0.6035297564939646
N -0.3651607219726825 2.0843909360248336 -0.8488514721910583 0.0604057803354635
N -1.2779662610759563 -1.4988939958017469 -0.2433504485686628 0.6991174418445399
O -0.8756782283606566 -1.5807152817795107 -0.0979782239889483 -0.4131324281244263
O -1.3136016114606064 -1.2745703535264823 -0.2659943423666129 -0.9286014603942530
O -0.0306809002439548 -0.2504814544772457 0.2903085151776182 -0.1057946580878595
N -0.6588266064250066 -0.0269438908368012 -0.1311440930338633 0.9961038253671308
O -0.5308128055930504 0.1605189079951114 -0.3583232014144298 -0.3737552305035935
N 0.4392249023291079 -0.1864572434552769 0.5066025621756610 0.9714181100989372
O 0.8609233861548957 -0.1721643157751964 0.4268545262366848 -0.9973398242463560
N 0.9568695214384400 -0.4303991595986413 0.6793252418379427 0.7637225416907655
O 0.6947709899485983 -0.2023502702610027 0.8918498399721211 -0.9974375214017446
O 2.1502825534996592 0.2474703964945693 -0.0099069366026812 -0.4871145088925188
N 1.3473123666260451 0.2722649751203015 -0.0548416780797182 0.4662300369825688
N 2.3336305388930785 0.1994621902116507 0.0042528243305617 0.6223673236702755
N 2.1614270682180745 -0.6426330155818150 -0.8872676593479916 0.9509229066582735
O 2.1747265630132575 -0.6345391134250845 -0.7649871449390295 -0.9922381659518612
O 1.7441295617870844 0.8074828368959961 -0.4961403178753861 -0.6086911331096487
N 1.7544627491943847 1.1085680617025719 -0.6579725727915097 0.3897866237988844
