25
s                      x[A]                      y[A]                      z[A]                      q[e]
N 0.1162801766119686 -0.0264462253122702 0.1964482677673807 0.1158659338886357
O -0.2032156679998152 0.4702135283251598 0.3302211730117652 -0.2341991647481463
N -0.0852955690864076 -0.0110049173669545 -0.4048241180991544 0.0569852111266852
N -0.4816928639401706 -0.0516667439107197 0.1667659885803747 0.3189271149812888
O -0.2020224673057668 -0.3282419242826377 0.2495377702083442 -0.2877498234141676
N -0.0324999240800962 0.0932497138654697 -0.4976641015998337 0.5692545008206258
O -0.1052091723784902 -0.4426464126624586 0.0382386898153335 -0.2058946535748549
O -0.0098449659248949 0.1107446016997178 -0.1831860713947665 -0.9992971180892700
N -0.1791553294704599 -0.0401213740144987 0.2820751935370031 0.6691943173322236
N 0.0279125092780181 -0.0948356860555909 0.4659419942571510 0.0628076875181509
N 0.0123069593662467 -0.0042171636571965 0.0604197056971269 0.7576134719858190
O -0.0134073492683897 -0.0486861678597793 -0.2091172714433074 -0.9235083265987739
N 0.0493477781616982 -0.0133111714158423 -0.6406915033029609 0.9955526175656415
O 0.0103579933239294 0.0279624768245175 -0.0961100847237989 -0.9936641819349231
O -0.0821445945240927 0.0787931604731189 -0.1346718302623601 -0.9934394819660318
N -0.0641410225807510 -0.0512414934226089 0.2288344823810497 0.8475065253219278
N -0.1091383218052684 0.0059792728129823 -0.3874049779797968 0.9207393412409772
O 0.1233422065272664 -0.1972040666038712 -0.2319025008619732 -0.6738758902636315
N -0.0364232497186367 0.0074485176111840 0.2282721153594206 0.1207489421105395
N 0.2959150773414356 0.0603665219775278 -0.5147373537793675 0.4308753055723465
O 0.3819850747909610 -0.1587970143731900 -0.1826292533709436 -0.7095764258838037
N 0.4983540970536399 -0.0147356701608716 0.0002377011447161 0.9977500474782615
O 0.3536595753730684 0.1038946886499953 -0.1258650254433967 -0.9963537733476465
O -0.0275240129315748 -0.3365374435196206 -0.0458132800998624 -0.1586318904925156
N -0.0018581348662675 -0.1748791708596319 -0.0479023687941716 0.3123697133706422
