21
s                      x[A]                      y[A]                      z[A]                      q[e]
N -1.8225615401651676 1.1541349541480019 -1.2965453894058370 0.0707249461841811
O -1.6883794766828941 0.2903907595388607 0.0470092431731238 -0.3496602100029151
N -1.4797721144087743 0.1293429151612905 -0.4326951835005803 0.9824851761690530
N -3.1313504210895693 -0.2516352335606041 0.0927886671937410 0.1071394941056757
O -1.5267740703449353 -0.0498756105033550 -0.4705038210028112 -0.8194842575378962
N -0.6180631991737351 -0.1769662258006234 0.4457869936262397 0.3116552922920345
N -0.9943883895341575 -1.3086261108559383 1.2874295595477026 0.0918298459672651
N -1.4272841754707695 -0.4004404923847618 0.5458020360737408 0.5593901217632046
O -1.0818293528996104 -0.3521055423488121 0.4816285491999305 -0.9963138680841535
N 1.2178989915302705 -0.5812848759042835 -0.0806449914027964 0.9989733053171830
O 1.2571924401695873 -0.6752881244566655 -0.0798824059092633 -0.8354521971080898
N 1.5379129868434775 -1.3743516285026769 -0.2878131558407799 0.2899344186932475
O 1.3145248660086082 -1.0646526454423695 -0.2228980099003784 -0.8678253524624289
N 0.3008349574079049 0.3150514521339486 0.1958424005314349 0.9219570073558310
O 0.5330560947495772 0.2394379291725602 0.3018976945090886 -0.9704818863270434
O 0.4683575634094100 0.3769542278668123 -0.3557556264562198 -0.3320651923316272
N 0.7838512002055253 -0.2227160393559335 -0.0244468663664093 0.9769593393400061
O 1.0858734203129374 0.9672348546730044 0.5749957322529765 -0.1970026432733326
O 0.8784242385031740 1.0669805583302674 -0.4030948951446940 -0.1946060569702309
N 2.2717923847902006 1.3753200101899490 -0.1862534700882459 0.1283355164991325
N 0.3322445935677034 2.2027309769263641 0.3794337825650918 0.1235072004109040
