25
s                      x[A]                      y[A]                      z[A]                      q[e]
N -1.7763840052165953 1.0782824717044477 -1.0053154516734524 0.1158659338886357
O -1.8407630188017530 -0.0209994853164994 0.2894085993745316 -0.2341991647481463
N -3.3147975393417992 -0.5089044773586044 -0.1087449612011482 0.0569852111266852
N -2.1084065029604542 -0.4374589643264052 -0.0371450956843118 0.3189271149812888
O -1.7839673450174591 -0.4933076104220914 -0.3297505089496894 -0.2877498234141676
N -1.3700634716973084 -0.7546214956431018 0.2963843045178641 0.5692545008206258
O -0.7861518986321364 -0.3958641026627827 0.8010106096487180 -0.2058946535748549
O -1.1485728000563791 -0.5653295307593686 0.1913234013684439 -0.9992971180892700
N -0.6802438900796843 -0.3063510548663936 0.3115604636437972 0.6691943173322236
N -0.9691364995746773 -1.7929069935308486 1.1170996952956314 0.0628076875181509
N 0.6826694266917306 1.5694089910139435 0.1164098503542807 0.7576134719858190
O 0.6477806855195815 1.2383206244495515 0.1924092733926655 -0.9235083265987739
N 0.6739810910215361 0.8228848190969393 0.1070088829733850 0.9955526175656415
O 0.6712020691234470 1.3827222918359809 0.0758715593292192 -0.9936641819349231
O 0.4420836811293131 -0.1962966740192116 0.0071073846937993 -0.9934394819660318
N 0.5115473839231125 0.2073104336494520 0.1578355510769844 0.8475065253219278
N 0.4002661642223069 -0.4685709564786688 0.0984853233645541 0.9207393412409772
O 0.6881103588434110 -0.3199150488618975 0.3148544731759862 -0.6738758902636315
N 2.7669955160432940 -0.2674385460993637 -0.4409315041256474 0.1207489421105395
N 1.0683278324741183 -0.7721531455236086 -0.0119838144651888 0.4308753055723465
O 1.2830838601826402 -0.5204036001380206 -0.3310323052219235 -0.7095764258838037
N 1.4762018742298382 -0.3452139294527681 -0.1672541179172673 0.9977500474782615
O 1.4495817983278703 -0.5396567313699363 -0.0450247415589556 -0.9963537733476465
O 1.4816983543754343 -1.9741563464222520 -0.6452941534306582 -0.1586318904925156
N 1.5242127044438212 -1.9352368284366368 -0.4729060571787410 0.3123697133706422
