25
s                      x[A]                      y[A]                      z[A]                      q[e]
N 0.0615175950088294 0.0049891617304813 0.2404102568661221 0.1158659338886357
O -0.1624471949106810 0.4332424209376776 0.3154989457861158 -0.2341991647481463
N -0.0924954029871361 -0.0121096582627807 -0.3917314913664220 0.0569852111266852
N -0.4969311968103683 -0.0203026206456724 0.1307661772941051 0.3189271149812888
O -0.2412583153320254 -0.3430591478568782 0.2871546940362458 -0.2877498234141676
N 0.0232046448220789 0.0965630636363800 -0.5386865959265313 0.5692545008206258
O -0.1711517036020020 -0.4854817177487405 0.0510224698822798 -0.2058946535748549
O -0.0783800673053206 0.1697202651881366 -0.2553918217298031 -0.9992971180892700
N -0.1854608159144120 -0.0171202887518479 0.2490713490974942 0.6691943173322236
N 0.0227511561211922 -0.0023094288315952 0.3854274478328393 0.0628076875181509
N 0.0361010232136620 0.0061649182333523 0.2510949710195804 0.7576134719858190
O 0.0143638197777350 -0.0718545765371756 -0.0806475427762226 -0.9235083265987739
N 0.0851427116603232 -0.0025743863459757 -0.4938753250127875 0.9955526175656415
O 0.0453869310238521 0.0431488418743775 0.0635510074082446 -0.9936641819349231
O -0.0503581568468112 0.1066124853755033 -0.1150515519532238 -0.9934394819660318
N -0.0366657384806883 -0.0427439581346399 0.2947631061167567 0.8475065253219278
N -0.0858148085487591 0.0160552001376601 -0.3885001233980841 0.9207393412409772
O 0.1513135461053935 -0.2396393201289539 -0.2148368746630668 -0.6738758902636315
N -0.0649734626649838 0.0185615741718179 0.2135668339564645 0.1207489421105395
N 0.2737133020412202 0.0749909225731600 -0.4948131038412139 0.4308753055723465
O 0.3560026086249217 -0.2013680194200978 -0.1368408567388936 -0.7095764258838037
N 0.4565804590637864 -0.0090637472771470 0.0815909303659307 0.9977500474782615
O 0.3141083168040139 0.1160068696514683 -0.0507558926574202 -0.9963537733476465
O -0.0240454919303440 -0.3665938235798318 -0.1278370954018644 -0.1586318904925156
N -0.0238039999621378 -0.1919327216328860 -0.0775052394889521 0.3123697133706422
