25
s                      x[A]                      y[A]                      z[A]                      q[e]
N       -1.9101990941221845        1.2926579198185082        0.1889166743881682        0.1158659338886357
O       -1.7691131851453774       -0.3584200611488593        0.4377204770856870       -0.2341991647481463
N       -3.2826095476935149       -0.6774633039791015        0.0524107359606353        0.0569852111266852
N       -2.0722402210438586       -0.5511439857991607        0.0123117337168532        0.3189271149812888
O       -1.8648300497166959       -0.3348180976087889       -0.3588922191507913       -0.2877498234141676
N       -1.2868774897483388       -0.9317071321150894       -0.2004302378938539        0.5692545008206258
O       -0.8350203038784302       -0.5357261135608029        0.4267420466659793       -0.2058946535748549
O       -1.0459426468102306       -0.7629265611863343       -0.2139249292263988       -0.9992971180892700
N       -0.6571512003554411       -0.4249663301566970       -0.0495580127095429        0.6691943173322236
N       -0.7642082367342424       -2.1891055180405941       -0.1990693211965563        0.0628076875181509
N        0.5381911098454889        1.5982226687279022       -0.0312617593374380        0.7576134719858190
O        0.5051108293037909        1.2513069718688095        0.0366484526344271       -0.9235083265987739
N        0.5977585162408917        0.8280661011593151       -0.0154437432490915        0.9955526175656415
O        0.5371458901935446        1.3954009723590666       -0.0814871224477480       -0.9936641819349231
O        0.4796753247736557       -0.1987871323716542       -0.1319220915830492       -0.9934394819660318
N        0.4811868095087414        0.2009675337292678        0.0218860216663569        0.8475065253219278
N        0.4498105448277347       -0.4776376621671671       -0.0486916565526728        0.9207393412409772
O        0.6697780185471214       -0.2955938328305627        0.2229326602015074       -0.6738758902636315
N        2.8416309456773066       -0.0342872442204999        0.1261970009839649        0.1207489421105395
N        1.1513582713752213       -0.7037421406755251        0.0936221058313299        0.4308753055723465
O        1.4243626069329345       -0.4380231476139854       -0.1718392201051590       -0.7095764258838037
N        1.5404887877997104       -0.2444610436367668        0.0299360614536054        0.9977500474782615
O        1.5008190580466088       -0.4248420856071995        0.1520141044005339       -0.9963537733476465
O        1.8382700734978998       -1.8855001024715075       -0.2924752879642241       -0.1586318904925156
N        1.8310584277332458       -1.8292101518740149       -0.1337402686845297        0.3123697133706422

        RMSE         4.631349405E-01 kcal/mol

Coordinates in bohr
s                   x[bohr]                   y[bohr]                   z[bohr]                      q[e]
+       -3.6097531329885690        2.4427694423610053        0.3570007751259312        0.1158659338886357
-       -3.3431394048611316       -0.6773157534411918        0.8271718211966874       -0.2341991647481463
+       -6.2032330219537393       -1.2802201045682864        0.0990419369992847        0.0569852111266852
+       -3.9159664839310846       -1.0415111888536321        0.0232658048544176        0.3189271149812888
-       -3.5240180644884607       -0.6327145063274175       -0.6782080027527867       -0.2877498234141676
+       -2.4318460126410244       -1.7606713088332726       -0.3787582568797434        0.5692545008206258
-       -1.5779596835268042       -1.0123756328858364        0.8064255944160447       -0.2058946535748549
-       -1.9765451454078029       -1.4417222544795161       -0.4042595276458427       -0.9992971180892700
+       -1.2418357916876486       -0.8030699765370473       -0.0936510713429944        0.6691943173322236
+       -1.4441442702467586       -4.1368098888252032       -0.3761864970422882        0.0628076875181509
+        1.0170338007641642        3.0202031313940485       -0.0590761633477318        0.7576134719858190
-        0.9545211303870432        2.3646274757080130        0.0692555384008807       -0.9235083265987739
+        1.1295998848553206        1.5648181449667626       -0.0291844450926711        0.9955526175656415
-        1.0150586218810431        2.6369256729561847       -0.1539883441778905       -0.9936641819349231
-        0.9064549929622457       -0.3756532374475586       -0.2492966229895283       -0.9934394819660318
+        0.9093112851543680        0.3797735988570246        0.0413585869252508        0.8475065253219278
+        0.8500187380673898       -0.9026043686998957       -0.0920138954794057        0.9207393412409772
-        1.2656970199058730       -0.5585913884241281        0.4212816722006012       -0.6738758902636315
+        5.3699042369558407       -0.0647935011734315        0.2384777697138256        0.1207489421105395
+        2.1757518051797198       -1.3298799088201578        0.1769201393098418        0.4308753055723465
-        2.6916552304463859       -0.8277437856014190       -0.3247290636110171       -0.7095764258838037
+        2.9111019082799734       -0.4619644208170844        0.0565709574221891        0.9977500474782615
-        2.8361369835756851       -0.8028351883659162        0.2872650245237626       -0.9963537733476465
-        3.4738269835362634       -3.5630788031938199       -0.5526981927167958       -0.1586318904925156
+        3.4601989481272493       -3.4567062129490078       -0.2527324797589053        0.3123697133706422
