21
s                      x[A]                      y[A]                      z[A]                      q[e]
N -1.9128347945209077 1.3692386641360446 0.5984014703524514 0.0707249461841811
O -1.5754616953082732 -0.1566999170722371 0.3694735568155998 -0.3496602100029151
N -1.5096813350025282 0.1927222848984191 -0.0466454848903091 0.9824851761690530
N -3.0385389723920704 -0.6615867454874546 0.1183473416716012 0.1071394941056757
O -1.5854739420710284 0.1240381294931059 -0.2056945666976404 -0.8194842575378962
N -0.4923708259757600 -0.6241326002565933 -0.2873299449657279 0.3116552922920345
N -0.7985908894992366 -1.9320847589648689 -0.5355906714235966 0.0918298459672651
N -1.2697459964406077 -0.9554712240164971 -0.2610496064333470 0.5593901217632046
O -0.9654782946463606 -0.7732846781949227 -0.2562804175688332 -0.9963138680841535
N 0.7552555529677260 0.8778568193903559 -0.1489387790375061 0.9989733053171830
O 0.7309034791178093 0.9752097630334065 -0.1665777446454904 -0.8354521971080898
N 0.5587598377769062 1.7333171735480384 -0.0867679531576432 0.2899344186932475
O 0.5580558029708994 1.3460975562719641 -0.0776022636517750 -0.8678253524624289
N 0.5290535224328743 -0.4094810773636252 -0.1601182493581351 0.9219570073558310
O 0.6611271122464693 -0.2366930043910187 -0.3137322661833487 -0.9704818863270434
O 0.7468004837446632 -0.2580665364650173 0.3554640110121397 -0.3320651923316272
N 0.6155991047647948 0.3377475532758365 -0.0880435538906509 0.9769593393400061
O 1.5724029270684581 -0.5824620555293433 -0.3988032431786734 -0.1970026432733326
O 1.4101614803991533 -0.5269027508856520 0.5912712974730818 -0.1946060569702309
N 2.7396063519473346 -0.0437393741170388 0.3068884015302438 0.1283355164991325
N 1.6511126913853755 -1.9282027086908768 0.1651854004431020 0.1235072004109040
