25
s                      x[A]                      y[A]                      z[A]                      q[e]
N 0.0669898619805199 -0.0067122588800193 0.2424985710678083 0.1158659338886357
O -0.1686715809619009 0.4328737913854571 0.3034320450454287 -0.2341991647481463
N -0.0821450034632688 -0.0085606261385522 -0.3914434108949026 0.0569852111266852
N -0.5161855211021429 -0.0225591544192068 0.1446930327699562 0.3189271149812888
O -0.2350750034249531 -0.3493319705377997 0.2698606858309449 -0.2877498234141676
N 0.0266373840173382 0.1176656725338136 -0.5562483862103969 0.5692545008206258
O -0.1549220619401844 -0.4980069522050254 0.0454903711850754 -0.2058946535748549
O -0.0602541186925747 0.1632939487350845 -0.2687727512686189 -0.9992971180892700
N -0.1925351029015931 -0.0149148453934057 0.2394243570018204 0.6691943173322236
N 0.0165882447111326 -0.0178076192176624 0.3829991321474835 0.0628076875181509
N 0.0563380976476081 0.0072206032683127 0.2922591755284412 0.7576134719858190
O 0.0384543472684895 -0.0778125276184013 -0.0571171418924044 -0.9235083265987739
N 0.1041391635406769 -0.0069019615267180 -0.4775937919764093 0.9955526175656415
O 0.0715863043910240 0.0487853954083534 0.0961108933368430 -0.9936641819349231
O -0.0399869301688634 0.1128198548077733 -0.1282471836674781 -0.9934394819660318
N -0.0300689448415128 -0.0496080975925725 0.2978568985406242 0.8475065253219278
N -0.0813667279209933 0.0223695286376198 -0.3985572228481269 0.9207393412409772
O 0.1574843292497879 -0.2578727793852747 -0.2301650826911686 -0.6738758902636315
N -0.0648001074250826 0.0224022696354943 0.2205865386391326 0.1207489421105395
N 0.2652244987490275 0.0741889839503073 -0.4874012310302443 0.4308753055723465
O 0.3471004286950768 -0.2095002310187900 -0.1278358236909389 -0.7095764258838037
N 0.4503492022325510 -0.0095440214563198 0.1036374937814266 0.9977500474782615
O 0.3034636027503297 0.1270816367339977 -0.0374115034120202 -0.9963537733476465
O -0.0317993242764956 -0.3698051938895106 -0.1428317557765458 -0.1586318904925156
N -0.0337613934245348 -0.2022282713120400 -0.0898273669388078 0.3123697133706422
