30
s                      x[A]                      y[A]                      z[A]                      q[e]
N 3.1307218460058461 -1.0051248199784781 -0.2003366386865721 0.2137068255539760
N 2.4221973053280719 -0.6671795857836788 0.1642149105868899 0.4524136045707061
O 2.6412150956218365 -0.7860311898313465 0.5947855053583707 -0.5303393512711568
N 2.7206895990661693 -1.1751128078011199 1.1914076132386602 0.2065219334641430
N 3.8760972570322001 0.3090452145901182 -0.0138104831643443 0.0640972179527254
N 2.9121850960403726 -1.4453461210842098 -0.8071830086688931 0.2729192555687945
O 2.9100019216374307 -1.1035910237396163 -0.4953993849454286 -0.5760168259183410
O 1.7109765560318919 1.4764111867724852 0.0020434671054431 -0.7855321009151053
O 1.1201452025032452 1.4426505842273283 -0.0774213716261376 -0.7445427033607991
N 1.4337688550594467 1.4878924747089115 -0.0394715427727313 0.9977538426035523
N 1.8762494455838887 0.0925248869493833 -0.0765688828200785 0.2084365764815679
N 1.1140088175408076 0.2045921577571460 -0.0763316010900398 0.3300899125146088
N 0.3214437099730266 -1.1739466956592062 0.0506751850593031 0.6266498413516267
O 0.6223796703783996 -1.1218234326186651 -0.2893077024425199 -0.5811225412727979
N 0.3018163431353331 -1.7436274320196308 0.3006808335499004 0.5003074335780895
O 0.2727316823926955 -1.6208113480537263 0.2268100260108996 -0.5967490130385100
N 0.1853235345272462 -1.0077025180091426 -1.2514379850894131 0.9708061175491041
O 0.0727316308139004 -0.6859023238093565 -1.3922188623513760 -0.1568654630532827
O 0.1945637839398768 -1.0789298190287475 -1.1226697210931991 -0.7813807259506527
N -0.7482546114035372 0.3137395880620482 -0.1999346904248720 0.1400529194232831
N -0.8296533073069281 0.0326517283064180 0.4154472637970089 0.1778327620465852
N -1.1341663894361025 0.2394714525635931 0.8363731266048049 0.7120624373414439
O -1.1244221759843764 0.2927901788094981 1.0222336245022705 -0.9970019554920370
N -1.7496875401992300 -0.7019971564310408 -0.0446459021320558 0.9931708722557875
N -2.3311361362462271 -1.2246297122881187 -0.1343349542449755 0.8506195801821621
O -2.0588959010119390 -1.1040820304788348 -0.1372404884952705 -0.8089940633040810
O -2.2358478385494922 -1.0549919405531776 -0.0963979751301290 -0.9883399134133223
N -1.5310087625668847 1.3307662809107799 -1.0808638837165618 0.2529889584625400
N -1.4057797528183171 0.7005845958701962 -0.5344660325595505 0.5419198115726583
O -1.4366991433384952 1.0112569867587702 -0.8381123823717735 -0.9654652454832693
