21
s                      x[A]                      y[A]                      z[A]                      q[e]
N 2.1340889032520423 1.5781922918959070 -0.0375942279031191 0.0690680479201058
O 1.8452522065315158 -0.2768640375154349 -0.4117954671572276 -0.3117950550350966
N 1.9732353003093803 -0.3929106333668198 -0.0669153884837435 0.5776243102962968
N 3.3115831522811643 -0.6026493924780648 -0.1155151868650155 0.0604184539076988
O 1.8609251159766389 -0.3069302208421163 0.2595378742532740 -0.3968494342195521
O 0.9315639477976759 -0.1419924991298601 -0.0820443301700277 -0.9828651838991298
N 0.7511494461586348 -0.0442978021160731 -0.0681545228077024 0.7759263489545838
N 0.9685692326386811 -1.4147456967702463 -0.0346194837333704 0.9970342621901004
O 1.0161195063799366 -1.3906870984839028 0.2456512282236561 -0.3970377457969525
O 1.0336633438812723 -1.3936110953021970 -0.3069782959175468 -0.3893757401670396
N -1.8265305356213570 -1.2157965584476997 0.2352976118432079 0.1691966627363242
O -1.4629609744489027 -0.8941567903093848 0.1410854433563323 -0.6800109224217911
O -0.3430298057597554 0.4440729239734487 0.4044516855385152 -0.9821368279659007
N -0.2186218089116846 0.4453075388509117 0.2790293827057242 0.8921713087406896
O -0.5700595794546055 0.5057960379015637 -0.2533464108898540 -0.3335771210350215
N -0.8032545555711583 -0.1563820721335309 0.1492356047505504 0.9988617281482304
N -2.2560357676844389 1.6890392097928033 -0.3147309067339039 0.0655379221577991
N -1.0719117706023706 1.0357261944052913 -0.1998405898337479 0.9908754307264420
O -0.9358670754563658 1.1576216849970709 0.1374433199338300 -0.6595771554465193
O -0.9854781379630517 1.0908325735411277 -0.5732451411934911 -0.5578053818499882
N 0.2038125467023185 2.2373265452039881 0.1134871405404722 0.0943160920587207
