25
s                      x[A]                      y[A]                      z[A]                      q[e]
N -1.7143390210797900 0.8900399945319225 -1.2598449033468395 0.1158659338886357
O -1.8528845956692059 0.1021816898185832 0.2326615956076585 -0.2341991647481463
N -3.3300374382907236 -0.4154733999923722 -0.0713741757367578 0.0569852111266852
N -2.1241091121170537 -0.3994685164780800 0.0143461757717657 0.3189271149812888
O -1.8162894868861155 -0.4900499509363835 -0.2817933889569723 -0.2877498234141676
N -1.4285585590297187 -0.6424764685410234 0.3726451313617705 0.5692545008206258
O -0.7774604479881967 -0.3319070502374087 0.8779296134103701 -0.2058946535748549
O -1.1847492543424794 -0.4818064374349328 0.2836981468078653 -0.9992971180892700
N -0.7022474098875380 -0.2279335696032289 0.3733657017909486 0.6691943173322236
N -1.0576967453082144 -1.5076804676310047 1.4223379337689868 0.0628076875181509
N 0.8022046150750408 1.5941138606142884 0.1039742320199273 0.7576134719858190
O 0.7523424965217994 1.2493456068796733 0.1814549216712032 -0.9235083265987739
N 0.7445195176632498 0.8248149444139581 0.1031591882858151 0.9955526175656415
O 0.7797272231510959 1.4009352516619142 0.0519606794879856 -0.9936641819349231
O 0.4324528918932926 -0.2066728384131212 0.0026021534296298 -0.9934394819660318
N 0.5344172745882957 0.2071437692724793 0.1681096621270522 0.8475065253219278
N 0.3733731543297938 -0.4723727174771219 0.1028866220162802 0.9207393412409772
O 0.6850218298626046 -0.3476456296311621 0.3232744772686656 -0.6738758902636315
N 2.7390276767911845 -0.4024720595109388 -0.4865499572752845 0.1207489421105395
N 1.0277335633012232 -0.8109596075363212 -0.0152969883934957 0.4308753055723465
O 1.2474337675784972 -0.5727760134053381 -0.3537335475578954 -0.7095764258838037
N 1.4679599025541166 -0.4023110757977596 -0.1855198525160802 0.9977500474782615
O 1.4288296231195972 -0.6016110887563961 -0.0549525359273280 -0.9963537733476465
O 1.3470430563980016 -2.0492199507639479 -0.6541306789599021 -0.1586318904925156
N 1.3975393164623762 -2.0088204619032370 -0.4889536980877384 0.3123697133706422
