21
s                      x[A]                      y[A]                      z[A]                      q[e]
N -2.0336684856935556 1.2530313982711341 -0.6828568370451313 0.0707249461841811
O -1.6097724353176814 -0.0337230927718871 0.3024455727522274 -0.3496602100029151
N -1.4911703719706733 0.0150050584695522 -0.2296296131140042 0.9824851761690530
N -2.9694191069824041 -0.7635389000277482 0.3604478826296331 0.1071394941056757
O -1.5323017895048678 -0.1440165055288968 -0.3232750383643019 -0.8194842575378962
N -0.4927736650793691 -0.6027899415968063 -0.0124126203984756 0.3116552922920345
N -0.5789187048471562 -1.8557038009561859 0.7289385464528146 0.0918298459672651
N -1.1728232141882189 -0.9433802741442581 0.3564427027198950 0.5593901217632046
O -0.8952569054884865 -0.7565154961717520 0.2385831656186360 -0.9963138680841535
N 0.7045196381262859 0.8140263959383802 0.3777657632395552 0.9989733053171830
O 0.6762682843409695 0.9090801598104692 0.4009294610612374 -0.8354521971080898
N 0.5025264236159235 1.7886909026983060 -0.1298603012218574 0.2899344186932475
O 0.5166451144731450 1.4016867908301323 -0.1211764023789189 -0.8678253524624289
N 0.5291364857125170 -0.3539369323472280 -0.1942020912230640 0.9219570073558310
O 0.6033532013174143 -0.1778039542270564 -0.3795360644371759 -0.9704818863270434
O 0.8832007863752591 -0.1893346698013096 0.2345808264192062 -0.3320651923316272
N 0.6037898418741201 0.3966942651463347 -0.1495301475901853 0.9769593393400061
O 1.3100963379020825 -0.4728320145948144 -0.9510277084004977 -0.1970026432733326
O 1.5217098764067951 -0.6432304343936832 0.2480948897481496 -0.1946060569702309
N 2.7456351930000524 0.0731647368163447 -0.0617134340518611 0.1283355164991325
N 1.7280810940147333 -1.7268377094096214 -0.7367119594148868 0.1235072004109040
