21
s                      x[A]                      y[A]                      z[A]                      q[e]
N        1.8786533379119710        1.3448396687680766        0.7362140246443282        0.0707249461841811
O        1.6692833548860542        0.0318648214463797       -0.1449536959742453       -0.3496602100029151
N        1.4398115622956777        0.0844294084838770        0.3491359175202078        0.9824851761690530
N        3.0477508789983090       -0.6179576153656492        0.1036549069372092        0.1071394941056757
O        1.4688913438029483       -0.0699488680764625        0.4543539341758306       -0.8194842575378962
N        0.5333122736398427       -0.5954629784237762       -0.0885691378275284        0.3116552922920345
N        0.8492001085828847       -1.8561764054451189       -0.7167997190547869        0.0918298459672651
N        1.3022613220547128       -0.9028096920384712       -0.2589487869690917        0.5593901217632046
O        0.9966677292192772       -0.7302017730817415       -0.2072628721664178       -0.9963138680841535
N       -0.7651939105727384        0.8695737886237423        0.0042101439217592        0.9989733053171830
O       -0.7408323308547907        0.9676795982927373        0.0165258841173465       -0.8354521971080898
N       -0.6079217058015156        1.7294102440379937       -0.0968951614416609        0.2899344186932475
O       -0.5981680801719567        1.3422515572540688       -0.1046377816916301       -0.8678253524624289
N       -0.5048345966125256       -0.4124347312106463       -0.0223358785947854        0.9219570073558310
O       -0.6107442727111627       -0.2419122042984555        0.1525493317809098       -0.9704818863270434
O       -0.8195311812803916       -0.2715706381067385       -0.4886336280781429       -0.3320651923316272
N       -0.6242688250894854        0.3315126145390954       -0.0797267542178113        0.9769593393400061
O       -1.3549787467999075       -0.5845290431355268        0.6443408180400135       -0.1970026432733326
O       -1.5665145706793011       -0.5797911386528911       -0.3379399203215941       -0.1946060569702309
N       -2.7172294506328836       -0.1042599602946633        0.3911313045837883        0.1283355164991325
N       -1.5863605674262071       -1.9600637247416488        0.2082890766488331        0.1235072004109040

        RMSE         4.725731508E-01 kcal/mol

Coordinates in bohr
s                   x[bohr]                   y[bohr]                   z[bohr]                      q[e]
+        3.5501402933308048        2.5413786566230865        1.3912428762988402        0.0707249461841811
-        3.1544883665200678        0.0602157855702725       -0.2739227862642026       -0.3496602100029151
+        2.7208495250063933        0.1595484589689332        0.6597712646736261        0.9824851761690530
+        5.7594144599301647       -1.1677706501820870        0.1958793856711441        0.1071394941056757
-        2.7758023478432881       -0.1321842034502942        0.8586044996166134       -0.8194842575378962
+        1.0078141365245250       -1.1252619470703409       -0.1673714136619556        0.3116552922920345
+        1.6047556309307018       -3.5076650468280430       -1.3545551558186621        0.0918298459672651
+        2.4609172424600412       -1.7060630613616352       -0.4893422878911063        0.5593901217632046
-        1.8834290463063965       -1.3798813674481956       -0.3916700643703059       -0.9963138680841535
+       -1.4460069238505449        1.6432563063756291        0.0079560189608858        0.9989733053171830
-       -1.3999702102001155        1.8286494179663220        0.0312293949628382       -0.8354521971080898
+       -1.1488055296860118        3.2681117197929948       -0.1831053180067607        0.2899344186932475
-       -1.1303738485158992        2.5364878346794675       -0.1977367497726261       -0.8678253524624289
+       -0.9539991262536536       -0.7793886866149354       -0.0422086933156202        0.9219570073558310
-       -1.1541394081160248       -0.4571478125298828        0.2882764576875194       -0.9704818863270434
-       -1.5486894838928713       -0.5131941297375571       -0.9233837327565103       -0.3320651923316272
+       -1.1796971080804639        0.6264680486133593       -0.1506617303433531        0.9769593393400061
-       -2.5605387372678927       -1.1045998039020708        1.2176276775490822       -0.1970026432733326
-       -2.9602835101230287       -1.0956464620213104       -0.6386138962668532       -0.1946060569702309
+       -5.1348194817243824       -0.1970227708080210        0.7391310447563879        0.1283355164991325
+       -2.9977870086614082       -3.7039836282064749        0.3936093097907880        0.1235072004109040
