21
s                      x[A]                      y[A]                      z[A]                      q[e]
N       -1.9711738278726709        1.4552063229225960       -0.7211611620564472        0.0707249461841811
O       -1.6959756666775236        0.1590603719881205        0.1751401069030053       -0.3496602100029151
N       -1.5210797944901804        0.1921440634861755       -0.3406704864140083        0.9824851761690530
N       -3.1128982690206621       -0.4563675091731351        0.0813566601579960        0.1071394941056757
O       -1.5681961838568770        0.0440996206659319       -0.4413897462611382       -0.8194842575378962
N       -0.6180719040876695       -0.3181334537053502        0.2980030226238249        0.3116552922920345
N       -0.8735657714062099       -1.7504423481890945        0.6829063779705715        0.0918298459672651
N       -1.3993839048417309       -0.6414701464153137        0.3001211640972437        0.5593901217632046
O       -1.0586926138653057       -0.5432534255417381        0.2755790942878441       -0.9963138680841535
N        1.2944495096201500       -0.4894064687756561       -0.0127451554121831        0.9989733053171830
O        1.3443291847822190       -0.5728134046841995       -0.0100133647866847       -0.8354521971080898
N        1.7280159231272427       -1.2330259582615992       -0.1894874854197701        0.2899344186932475
O        1.4636956497299023       -0.9493689440274108       -0.1492218288645943       -0.8678253524624289
N        0.2529366996402493        0.2859099177956529        0.1636873353673652        0.9219570073558310
O        0.4775251505147948        0.2417244033791386        0.2934462059253017       -0.9704818863270434
O        0.4732302957976260        0.3851468613893860       -0.3652884085574262       -0.3320651923316272
N        0.8180622274830167       -0.1860926357238978       -0.0040235319495176        0.9769593393400061
O        0.9210658386129529        1.0408896960378968        0.5726618420407291       -0.1970026432733326
O        0.7893030061943737        1.1086318578858896       -0.4211599816730430       -0.1946060569702309
N        2.1145583511180224        1.5742485670551765       -0.0910129140523146        0.1283355164991325
N        0.0561892205130652        2.1822953664727445        0.2920822711680991        0.1235072004109040

        RMSE         1.533893947E+00 kcal/mol

Coordinates in bohr
s                   x[bohr]                   y[bohr]                   z[bohr]                      q[e]
+       -3.7249786803496985        2.7499414063582504       -1.3627970886035949        0.0707249461841811
-       -3.2049295254612740        0.3005805404709918        0.3309668356300860       -0.3496602100029151
+       -2.8744242265541180        0.3630996566214533       -0.6437739183489777        0.9824851761690530
+       -5.8825251848607962       -0.8624096048945885        0.1537418061805590        0.1071394941056757
-       -2.9634612984776081        0.0833362052951914       -0.8341057350188745       -0.8194842575378962
+       -1.1679866245659341       -0.6011850988491289        0.5631440973176423        0.3116552922920345
+       -1.6508000605320359       -3.3078566364806803        1.2905060236927672        0.0918298459672651
+       -2.6444523245246101       -1.2122028943822767        0.5671468045973774        0.5593901217632046
-       -2.0006390912505045       -1.0266001909906814        0.5207690141057452       -0.9963138680841535
+        2.4461550564152716       -0.9248441900134181       -0.0240848531554226        0.9989733053171830
-        2.5404139816983835       -1.0824604558441793       -0.0189225170411375       -0.8354521971080898
+        3.2654768351406767       -2.3300813666946176       -0.3580794516450488        0.2899344186932475
-        2.7659839090135665       -1.7940472962269087       -0.2819883884940210       -0.8678253524624289
+        0.4779810893972588        0.5402914411859454        0.3093242340502871        0.9219570073558310
-        0.9023917524909894        0.4567929202262647        0.5545329617535204       -0.9704818863270434
-        0.8942756533269098        0.7278220861056075       -0.6902950489778811       -0.3320651923316272
+        1.5459135635248815       -0.3516641154827564       -0.0076033734416177        0.9769593393400061
-        1.7405621784936207        1.9669964523226711        1.0821740439571699       -0.1970026432733326
-        1.4915665117079098        2.0950105853618157       -0.7958770203648895       -0.1946060569702309
+        3.9959361599127541        2.9748986451287167       -0.1719894814387068        0.1283355164991325
+        0.1061822379726503        4.1239405674891110        0.5519554986094146        0.1235072004109040
