21
s                      x[A]                      y[A]                      z[A]                      q[e]
N 1.7029711990814456 0.0507605322629393 -1.7881144755661178 0.0707249461841811
O 1.6273656960254768 -0.3856955754625053 -0.2604016761248993 -0.3496602100029151
N 1.4575142542617701 0.1108359560496142 -0.4158902695618270 0.9824851761690530
N 3.1283066065919152 -0.1706234100992968 0.0907004403340382 0.1071394941056757
O 1.5280139181671188 0.2451991394125617 -0.3030439616079691 -0.8194842575378962
N 0.5926411936159838 -0.2508912661620894 0.5338353720271776 0.3116552922920345
N 1.1054285783219933 -0.3061711775876423 1.8083102017408068 0.0918298459672651
N 1.4220354952926930 -0.3071332712910751 0.6878622340529115 0.5593901217632046
O 1.0838464522828839 -0.2358916407137753 0.6081983180621133 -0.9963138680841535
N -1.0107708529068815 0.7727479950115278 0.0238180261919014 0.9989733053171830
O -1.0203747262585954 0.8731995734400473 0.0379039549461488 -0.8354521971080898
N -1.0656507946992118 1.6461486686911861 -0.0680619761735518 0.2899344186932475
O -0.9493491533154920 1.2773809588363232 -0.0453905582417439 -0.8678253524624289
N -0.4225376537004815 -0.3898780809919409 0.1841538922167228 0.9219570073558310
O -0.6288276548794834 -0.2626557456683625 0.2943841043727424 -0.9704818863270434
O -0.5611782741973423 -0.3213638976618217 -0.3746311698353103 -0.3320651923316272
N -0.7074207910731770 0.2941717393304666 0.0360209513237132 0.9769593393400061
O -1.3820159753923811 -0.8418197513851694 0.3967543668884316 -0.1970026432733326
O -1.1387570537256584 -0.8149663825382892 -0.5777966258492024 -0.1946060569702309
N -2.5748118498657488 -0.7370006692911548 -0.4514379651658072 0.1283355164991325
N -1.0002110141503009 -2.1868757729150552 -0.0281420073860196 0.1235072004109040
