21
s                      x[A]                      y[A]                      z[A]                      q[e]
N -2.0647961747700738 -0.3374221103022763 1.5297928881686351 0.0707249461841811
O -1.4638928762642174 -0.7346750409796150 0.1117764568779499 -0.3496602100029151
N -1.5102613745139046 -0.2085378088109427 0.2556830574142578 0.9824851761690530
N -2.8120484673979007 -1.0414590124707830 -0.6053831756149548 0.1071394941056757
O -1.5890760455308721 -0.1070261975202428 0.1178534077159828 -0.8194842575378962
N -0.3529587714621942 -0.2611983938807817 -0.4331369267390739 0.3116552922920345
N -0.4381900127434729 -0.4775017417085102 -1.7880974704797123 0.0918298459672651
N -1.0602663089944517 -0.5985247363472854 -0.7638834582416216 0.5593901217632046
O -0.7804424396752931 -0.4111740972692431 -0.6370785230564363 -0.9963138680841535
N 0.8663090867004506 -0.0113573791215159 -0.9728940428521806 0.9989733053171830
O 0.8578257521439902 -0.0125928129731391 -1.0740986371436212 -0.8354521971080898
N 0.7661098423086976 0.1870305962260862 -1.8242337875073071 0.2899344186932475
O 0.7173427458415338 0.1193173222560614 -1.4458603736205378 -0.8678253524624289
N 0.5354882255643745 -0.0247374870459974 0.1945296916929365 0.9219570073558310
O 0.7062466733122026 0.1693182583293245 0.1315977136397026 -0.9704818863270434
O 0.4773519296701192 0.0861804984490415 0.7610304079797336 -0.3320651923316272
N 0.5077367332880021 0.7152095047501549 0.3452305068656543 0.9769593393400061
O 1.6108283011955660 -0.0948458202605052 0.2896502506184681 -0.1970026432733326
O 1.1088007066399217 -0.1641147753070337 1.1573120962355015 -0.1946060569702309
N 2.6894240582627882 0.2811150615255537 0.2744999656194101 0.1283355164991325
N 1.4038346544631903 -0.3100232069745436 1.9239559715196950 0.1235072004109040
