21
s                      x[A]                      y[A]                      z[A]                      q[e]
N 0.6063078315509215 -1.7882853575989603 0.3695083036922999 0.0707249461841811
O 0.2749036004855706 -0.2606971871322106 0.0757211671812616 -0.3496602100029151
N 0.7867223857093069 -0.4158355197879895 0.1925679181623775 0.9824851761690530
N -0.3310957406477715 0.0905620275624108 0.3844915007824479 0.1071394941056757
O 0.8637666552613709 -0.3035295113971792 0.3228173440298582 -0.8194842575378962
N 0.0655506530204119 -0.5339199651372126 -0.1992728650761360 0.3116552922920345
N 0.5765679541893509 -1.8081934554709607 -0.2703922548683620 0.0918298459672651
N 0.4499937151580318 0.6879245493211942 -0.0572895507206337 0.5593901217632046
O 0.5568458870982355 -0.6077851043359607 -0.1996001078464417 -0.9963138680841535
N 0.9709169347343195 -0.0237600721661931 -0.3121280311198404 0.9989733053171830
O 0.9649622999992279 -0.0373784903101136 -0.2116544317012735 -0.8354521971080898
N 0.9496557491428621 0.0683550366752640 0.5626518308334554 0.2899344186932475
O 1.0514903079258255 0.0459776840495600 0.1894779648770492 -0.8678253524624289
N -0.1104812600634212 -0.1844678880291580 0.4588145650864843 0.9219570073558310
O -0.3148948431854523 -0.2942585592962748 0.3286699947424219 -0.9704818863270434
O -0.2326560361670922 0.3746890661601072 0.3638276469038303 -0.3320651923316272
N -0.8502403597025141 -0.0364512449644991 0.5018259538398178 0.9769593393400061
O -0.1235577343023587 -0.3968501921824101 -0.6018654715310401 -0.1970026432733326
O -0.0414596451166263 0.5777439168385093 -0.3714458573878575 -0.1946060569702309
N 0.3003799187869739 0.4513595385774171 0.1930056873824730 0.1283355164991325
N -0.2452992141646625 -0.0275968198897311 0.4068327652484464 0.1235072004109040
