21
s                      x[A]                      y[A]                      z[A]                      q[e]
N        1.7029963138350162        0.0507864639585989       -1.7880798347538136        0.0707249461841811
O        1.6273024132224421       -0.3858181469763868       -0.2605615495546846       -0.3496602100029151
N        1.4576177710223808        0.1110144313268696       -0.4156229751896081        0.9824851761690530
N        3.1283177049748687       -0.1705782512676545        0.0907472283852857        0.1071394941056757
O        1.5279080223843344        0.2450110144966393       -0.3032950258956030       -0.8194842575378962
N        0.5926917417089754       -0.2507723471726394        0.5339934420193320        0.3116552922920345
N        1.1054414444324046       -0.3061253108046253        1.8083534263408534        0.0918298459672651
N        1.4220961617746823       -0.3069568848283523        0.6880705677088224        0.5593901217632046
O        1.0837560625403384       -0.2360861031384593        0.6079347697519698       -0.9963138680841535
N       -1.0106478950829705        0.7728883033525690        0.0240477979752135        0.9989733053171830
O       -1.0204682364753057        0.8730558331274479        0.0376819477994737       -0.8354521971080898
N       -1.0655787343919192        1.6462152563525865       -0.0679286893744078        0.2899344186932475
O       -0.9494489915692437        1.2772365115546245       -0.0456054677170051       -0.8678253524624289
N       -0.4224504561062057       -0.3897172054032271        0.1843944927880495        0.9219570073558310
O       -0.6289114823146829       -0.2628067689893345        0.2941401051754706       -0.9704818863270434
O       -0.5612190832333440       -0.3214497768631296       -0.3747910902573365       -0.3320651923316272
N       -0.7073105916136264        0.2943259513049673        0.0362658505717483        0.9769593393400061
O       -1.3820438130524662       -0.8418668928039639        0.3966693779321515       -0.1970026432733326
O       -1.1387709547705074       -0.8150078432108061       -0.5778889220409181       -0.1946060569702309
N       -2.5748007512508981       -0.7369837149049734       -0.4513906956944695        0.1283355164991325
N       -1.0002093345665164       -2.1868522967911517       -0.0280918300596443        0.1235072004109040

        RMSE         1.267450836E+00 kcal/mol

Coordinates in bohr
s                   x[bohr]                   y[bohr]                   z[bohr]                      q[e]
+        3.2181966258124088        0.0959725077621866       -3.3789811781385977        0.0707249461841811
-        3.0751558842870192       -0.7290906320170064       -0.4923899674832621       -0.3496602100029151
+        2.7544983828325993        0.2097868711812295       -0.7854135945563131        0.9824851761690530
+        5.9116636958232842       -0.3223461778553967        0.1714874082925626        0.1071394941056757
-        2.8873277071962811        0.4630037151192259       -0.5731445341563296       -0.8194842575378962
+        1.1200250686505540       -0.4738910559945172        1.0091013582070816        0.3116552922920345
+        2.0889815777077527       -0.5784929974913979        3.4172927138174889        0.0918298459672651
+        2.6873722698189191       -0.5800644446492870        1.3002649279579610        0.5593901217632046
-        2.0480021450057855       -0.4461380769582778        1.1488302169744868       -0.9963138680841535
+       -1.9098477309772515        1.4605472189061246        0.0454437520934929        0.9989733053171830
-       -1.9284054866672624        1.6498364168442883        0.0712085612148036       -0.8354521971080898
+       -2.0136519731126978        3.1108959780567385       -0.1283666189789279        0.2899344186932475
-       -1.7941985641579890        2.4136272042733933       -0.0861818438085482       -0.8678253524624289
+       -0.7983156636154723       -0.7364587845908930        0.3484550904121223        0.9219570073558310
-       -1.1884704587304651       -0.4966328173063055        0.5558442412950002       -0.9704818863270434
-       -1.0605503636915417       -0.6074520413608454       -0.7082525148481116       -0.3320651923316272
+       -1.3366233037853024        0.5561954395812253        0.0685325252873825        0.9769593393400061
-       -2.6116843000526000       -1.5908978614896554        0.7495964866474915       -0.1970026432733326
-       -2.1519652241423826       -1.5401416137684978       -1.0920517935933851       -0.1946060569702309
+       -4.8656682474872648       -1.3926973800928919       -0.8530047904424234        0.1283355164991325
+       -1.8901217104571355       -4.1325519177636956       -0.0530858651756313        0.1235072004109040
