21
s                      x[A]                      y[A]                      z[A]                      q[e]
N -0.1227549045156944 -0.0010499150710280 0.5358714856339125 0.0690680479201058
O -0.1842524896423456 0.3564725762476687 0.2092967980327320 -0.3117950550350966
N -0.3177551244544315 0.0033052828487325 0.1469993560201884 0.5776243102962968
N -0.1750191708020194 0.0150968224448806 -0.3844922882310451 0.0604184539076988
O -0.1911914841082010 -0.3156276529504655 0.2321189727172425 -0.3968494342195521
O -0.5195116965460634 -0.0730003894387912 0.1028797405821547 -0.9828651838991298
N -0.5929717979083751 -0.0695346369086832 0.3125479772730350 0.7759263489545838
N -0.2160013453252212 -0.0052398575616950 -0.3875648269815722 0.9970342621901004
O -0.2184033398566291 -0.2858785736714298 -0.3819531670101342 -0.3970377457969525
O -0.2621809608433736 0.2642750943382208 -0.3678823564224237 -0.3893757401670396
N -0.0839486602547639 -0.1000456108639315 0.5091136895752609 0.1691966627363242
O -0.1083715943141105 -0.0551857575794672 -0.3189519628142002 -0.6800109224217911
O -0.1323606818284780 0.3428036843248852 0.4680236388678494 -0.9821368279659007
N -0.2882760167810712 0.2204834007842659 0.5549022654659261 0.8921713087406896
O 0.0553656348565168 -0.3288943509034519 0.5385731149496257 -0.3335771210350215
N 0.2651854282923852 0.0782888055652232 -0.0578745553980524 0.9988617281482304
N 1.7850599047031936 -0.0135208074851612 0.3658459073303313 0.0655379221577991
N 0.5750166832535057 -0.0204800871165475 -0.2153864800997218 0.9908754307264420
O 0.4438696236512367 0.3323259346431353 -0.2354841728733685 -0.6595771554465193
O 0.5057471115131995 -0.3855941917038599 -0.1894730105556761 -0.5578053818499882
N -0.6545409234320789 0.0103709726218912 0.9591968480284073 0.0943160920587207
