25
s                      x[A]                      y[A]                      z[A]                      q[e]
N        1.7225535588270762        0.7767862609111557       -1.3764902089522104        0.1158659338886357
O        1.7813360415222674       -0.4593741739151082       -0.2406600958637364       -0.2341991647481463
N        3.3952665630582017       -0.1884264122762817        0.0288543326982334        0.0569852111266852
N        2.1373292103523762       -0.1147181645147474        0.1125290892935394        0.3189271149812888
O        1.9257243163059670        0.2360662493003246        0.1615783089615415       -0.2877498234141676
N        1.3971933449864355       -0.3688245639518964        0.4777155505432333        0.5692545008206258
O        0.7456698936154307       -0.3561074754523251        0.8256660188066023       -0.2058946535748549
O        1.1143505656721018       -0.2810679107255954        0.3672977397829540       -0.9992971180892700
N        0.5995824864753343       -0.3554044523309222        0.3961220770652866        0.6691943173322236
N        1.0815712408547082       -1.0520908823095596        1.7798503058033714        0.0628076875181509
N       -1.2320729743756895       -1.1374470840078130       -0.2099794705714476        0.7576134719858190
O       -1.0860391789889678       -0.9434345695159201       -0.1130972326787706       -0.9235083265987739
N       -0.9005159173852491       -0.5442373662758363       -0.0739459877652678        0.9955526175656415
O       -1.1417866481461192       -1.0184867468938335       -0.2070426004871613       -0.9936641819349231
O       -0.3100534880250514        0.1352439996096950        0.0396033382430296       -0.9934394819660318
N       -0.5419157953087022       -0.1647386342112400        0.0869436434062700        0.8475065253219278
N       -0.1742825594382865        0.3168825191605499        0.1562790848681487        0.9207393412409772
O       -0.5025064437977517        0.3139129984557405        0.2734511765285238       -0.6738758902636315
N       -2.3944832063548445        1.3211411624158236       -0.2421919971226686        0.1207489421105395
N       -0.6369276610222653        0.8869489213197682        0.1964179778656963        0.4308753055723465
O       -0.9064822644712982        0.8470380748592646       -0.0982198248022783       -0.7095764258838037
N       -1.1132457329820034        0.7161466565221649       -0.0170845328481072        0.9977500474782615
O       -1.0195188487772917        0.8433776883475076        0.1390330987037554       -0.9963537733476465
O       -0.5159238673663024        2.2103732571184023       -0.0191962853572357       -0.1586318904925156
N       -0.5365475980986367        2.1943369816855207        0.1488780868733220        0.3123697133706422

        RMSE         4.442236424E-01 kcal/mol

Coordinates in bohr
s                   x[bohr]                   y[bohr]                   z[bohr]                      q[e]
+        3.2551544626158839        1.4679132911405117       -2.6011895092938970        0.1158659338886357
-        3.3662372558842595       -0.8680913778079880       -0.4547816705088880       -0.2341991647481463
+        6.4161239271044925       -0.3560743140047771        0.0545267863325038        0.0569852111266852
+        4.0389668475070355       -0.2167859125480873        0.2126491599119781        0.3189271149812888
-        3.6390915509527999        0.4461005586416641        0.3053387517519216       -0.2877498234141676
+        2.6403127663366797       -0.6969774142104901        0.9027515563990175        0.5692545008206258
-        1.4091118789324388       -0.6729455998330910        1.5602826466415909       -0.2058946535748549
-        2.1058173768692798       -0.5311413739260061        0.6940921346894593       -0.9992971180892700
+        1.1330466890594042       -0.6716170786737751        0.7485622379008912        0.6691943173322236
+        2.0438734303869834       -1.9881636266563518        3.3634296222807358        0.0628076875181509
+       -2.3282804881482737       -2.1494634709753893       -0.3968036913486677        0.7576134719858190
-       -2.0523166098062231       -1.7828329536742937       -0.2137227953100556       -0.9235083265987739
+       -1.7017284554735284       -1.0284595695018091       -0.1397376649528115        0.9955526175656415
-       -2.1576640587006461       -1.9246610140378315       -0.3912538112233164       -0.9936641819349231
-       -0.5859161766102655        0.2555741193738491        0.0748394629331962       -0.9934394819660318
+       -1.0240724361931113       -0.3113109009412210        0.1642996743873177        0.8475065253219278
+       -0.3293463057821868        0.5988211751585820        0.2953246695379818        0.9207393412409772
-       -0.9495995550555172        0.5932095943026157        0.5167478323231319       -0.6738758902636315
+       -4.5249174720187773        2.4965949700349057       -0.4576765443395141        0.1207489421105395
+       -1.2036188410605224        1.6760905485646056        0.3711761842824037        0.4308753055723465
-       -1.7130032174355847        1.6006699793190560       -0.1856085689667560       -0.7095764258838037
+       -2.1037295456705412        1.3533210464892087       -0.0322850880643106        0.9977500474782615
-       -1.9266114039311368        1.5937528512985153        0.2627344789238434       -0.9963537733476465
-       -0.9749548109093409        4.1770000909899583       -0.0362757219513119       -0.1586318904925156
+       -1.0139280136786408        4.1466959223494042        0.2813388102726968        0.3123697133706422
