25
s                      x[A]                      y[A]                      z[A]                      q[e]
N 0.0581002572317960 0.0014490698456174 0.2438946129059489 0.1158659338886357
O -0.1576472511538938 0.4256467359715083 0.3335265786281298 -0.2341991647481463
N -0.1006615876903703 -0.0212135009422660 -0.3951846585565615 0.0569852111266852
N -0.4871953240936052 0.0084814610112575 0.1153232260442962 0.3189271149812888
O -0.2492438672290011 -0.3742497714806159 0.3068261826508130 -0.2877498234141676
N -0.0119203519961447 0.0755718917470870 -0.5300275806398065 0.5692545008206258
O -0.1793410746272402 -0.4520971276109492 0.0633257420808390 -0.2058946535748549
O -0.0628668947188113 0.1838614982507843 -0.2364707925064047 -0.9992971180892700
N -0.1844012944326711 -0.0216112239265467 0.2541779597154483 0.6691943173322236
N 0.0325015519089525 0.0225468052611359 0.4200648933563540 0.0628076875181509
N 0.0231952617768875 0.0033794530871204 0.2085879404111192 0.7576134719858190
O -0.0067193168702782 -0.0604623975230152 -0.1023065698861855 -0.9235083265987739
N 0.0614185128348862 0.0015255263698185 -0.5265671885224440 0.9955526175656415
O 0.0249650357652423 0.0442220154787203 0.0311764860789861 -0.9936641819349231
O -0.0619895499833045 0.0992322448111417 -0.1100112208011002 -0.9934394819660318
N -0.0519873800487898 -0.0350394206128983 0.2814934843447422 0.8475065253219278
N -0.0989863097909202 0.0157688674969161 -0.3684445685470537 0.9207393412409772
O 0.1473841109771702 -0.2191433084623499 -0.2089589986863861 -0.6738758902636315
N -0.0677204919302954 0.0193303005798341 0.2133552218119713 0.1207489421105395
N 0.2885745842426827 0.0700676651870943 -0.4948248358541853 0.4308753055723465
O 0.3649757839167151 -0.1891161536305605 -0.1450848543839071 -0.7095764258838037
N 0.4665855168654293 -0.0097969661613076 0.0585641444223380 0.9977500474782615
O 0.3243868819593042 0.1068912084471977 -0.0646298378354648 -0.9963537733476465
O -0.0072648092263186 -0.3505959211488517 -0.1143786269585396 -0.1586318904925156
N -0.0381723967664624 -0.1958080757582316 -0.0635334416518203 0.3123697133706422
