25
s                      x[A]                      y[A]                      z[A]                      q[e]
N       -1.8258779319447509        1.1721711639501780        0.7880233182709537        0.1158659338886357
O       -1.7071524369427615       -0.4804152085413566        0.4446527882301785       -0.2341991647481463
N       -3.2999155524096229       -0.5827950816477806        0.1246238488826737        0.0569852111266852
N       -2.1038170048037212       -0.4572804688621195        0.0010948872617409        0.3189271149812888
O       -1.8841259531622194       -0.1848808226519822       -0.2466813990892049       -0.2877498234141676
N       -1.3082064397346307       -0.8474824487935682       -0.4255390346599810        0.5692545008206258
O       -0.9134172226286285       -0.4532842249743634        0.2287817375217182       -0.2058946535748549
O       -1.0817345486371202       -0.6345217280528226       -0.4241317625690521       -0.9992971180892700
N       -0.6736916178362848       -0.3545115444494925       -0.2144354112087061        0.6691943173322236
N       -0.8980062748988373       -1.9468405895215914       -0.8864332822592360        0.0628076875181509
N        0.6163978027467756        1.5763019967619603       -0.1131961442609023        0.7576134719858190
O        0.5746608177115559        1.2472828864776002       -0.0452194879762223       -0.9235083265987739
N        0.6359636062450920        0.8304450855188181       -0.0807323046915106        0.9955526175656415
O        0.6221202020167346        1.3867551764597663       -0.1552811907886215       -0.9936641819349231
O        0.4796283916586386       -0.1971001588653210       -0.2037810955495399       -0.9934394819660318
N        0.4867408932609161        0.2125694791496448       -0.0461638051664869        0.8475065253219278
N        0.4240427740964327       -0.4719014669501843       -0.1152408077262758        0.9207393412409772
O        0.6318974516773307       -0.3063148205925660        0.1699290102488310       -0.6738758902636315
N        2.7901117035332472       -0.1698837678584441        0.4056724645810465        0.1207489421105395
N        1.0790311490971742       -0.7380345194729390        0.1422492382418392        0.4308753055723465
O        1.3991464033165781       -0.5035817378359624       -0.0814553683834464       -0.7095764258838037
N        1.5058432608090717       -0.3040171332509373        0.1266296987130190        0.9977500474782615
O        1.4267646194526380       -0.4846085030155922        0.2488914341616809       -0.9963537733476465
O        1.7430489673735972       -1.9631383614110893       -0.1010791251041103       -0.1586318904925156
N        1.7019145961336737       -1.9140301788538054        0.0536375239336363        0.3123697133706422

        RMSE         4.064185387E-01 kcal/mol

Coordinates in bohr
s                   x[bohr]                   y[bohr]                   z[bohr]                      q[e]
+       -3.4504092298929061        2.2150824720249624        1.4891482520065904        0.1158659338886357
-       -3.2260505602297340       -0.9078531706478723        0.8402719906762353       -0.2341991647481463
+       -6.2359366311930655       -1.1013230915781391        0.2355049430886969        0.0569852111266852
+       -3.9756379571600289       -0.8641348486703521        0.0020690370629427        0.3189271149812888
-       -3.5604820373437782       -0.3493741206615862       -0.4661602845233594       -0.2877498234141676
+       -2.4721518866587036       -1.6015097243521819       -0.8041522311990703        0.5692545008206258
-       -1.7261083890444484       -0.8565830421919584        0.4323348264224263       -0.2058946535748549
-       -2.0441820373698976       -1.1990722866720662       -0.8014928723632142       -0.9992971180892700
+       -1.2730926507271785       -0.6699297273226101       -0.4052241987843843        0.6691943173322236
+       -1.6969859185013971       -3.6789955241206709       -1.6751161319606114        0.0628076875181509
+        1.1648230315253829        2.9787790648924171       -0.2139097111109203        0.7576134719858190
-        1.0859515605064858        2.3570230564131718       -0.0854524478084935       -0.9235083265987739
+        1.2017970415617254        1.5693137738629710       -0.1525619453439692        0.9955526175656415
-        1.1756367989261252        2.6205874865699008       -0.2934389230254595       -0.9936641819349231
-        0.9063663022286489       -0.3724653195396854       -0.3850904601343836       -0.9934394819660318
+        0.9198069823238333        0.4016980982240469       -0.0872369486736554        0.8475065253219278
+        0.8013247085216408       -0.8917645307376372       -0.2177735650792056        0.9207393412409772
-        1.1941131230448774       -0.5788511190886995        0.3211192901404069       -0.6738758902636315
+        5.2725469791124242       -0.3210337944133148        0.7666098546976691        0.1207489421105395
+        2.0390733526317111       -1.3946831129377271        0.2688121018320783        0.4308753055723465
-        2.6440035116876928       -0.9516315662920730       -0.1539283376929902       -0.7095764258838037
+        2.8456313507955091       -0.5745091192910899        0.2392954499168456        0.9977500474782615
-        2.6961943762585463       -0.9157773487675733        0.4703366455379955       -0.9963537733476465
-        3.2938851715981761       -3.7097938494470073       -0.1910118634476575       -0.1586318904925156
+        3.2161524756118114       -3.6169928338947557        0.1013602302822621        0.3123697133706422
