21
s                      x[A]                      y[A]                      z[A]                      q[e]
N -1.8867783065583699 1.3128013732816699 0.7487910999781552 0.0707249461841811
O -1.5521679055589306 -0.1858910632894251 0.3890901331660345 -0.3496602100029151
N -1.5120248434096761 0.1898135079291010 -0.0068183891072119 0.9824851761690530
N -3.0286828772378063 -0.6841083449035470 0.1714270761481739 0.1071394941056757
O -1.5968315967503073 0.1309392510001230 -0.1652802543968639 -0.8194842575378962
N -0.4801396512190022 -0.6285261652387540 -0.3414331747948270 0.3116552922920345
N -0.8226835685275604 -1.8943929653992921 -0.6724792507188578 0.0918298459672651
N -1.2560618119204476 -0.9641357366996676 -0.3323251279660416 0.5593901217632046
O -0.9529509860441069 -0.7802974696647688 -0.3207927599617550 -0.9963138680841535
N 0.7530360602615863 0.8796819968556691 -0.1740039903638997 0.9989733053171830
O 0.7284646881774993 0.9769168721830254 -0.1920524055512259 -0.8354521971080898
N 0.5498387208775808 1.7337562343419672 -0.1144749430655553 0.2899344186932475
O 0.5514024610459829 1.3465150440948432 -0.1061014947030216 -0.8678253524624289
N 0.5353566753457129 -0.4094667215296998 -0.1923691582605854 0.9219570073558310
O 0.6695872530305582 -0.2355423936421628 -0.3428830159169486 -0.9704818863270434
O 0.7411270383710438 -0.2577027458669068 0.3279231962890685 -0.3320651923316272
N 0.6155845003316091 0.3381388378565841 -0.1170960924173004 0.9769593393400061
O 1.5992335665891519 -0.5770037586687655 -0.3568491930983553 -0.1970026432733326
O 1.3772784202321249 -0.5190087839270622 0.6214191887480691 -0.1946060569702309
N 2.7174867106003719 -0.0262793178383273 0.4154888484047601 0.1283355164991325
N 1.6542993793477720 -1.9200307583697556 0.2166792197628578 0.1235072004109040
