21
s                      x[A]                      y[A]                      z[A]                      q[e]
N 0.0584619727724130 -0.4036969140477560 0.3515522078039987 0.0707249461841811
O 0.0855610935210139 0.3461144047483642 0.3637351516056574 -0.3496602100029151
N 0.3968541852754314 -0.0970599363565186 0.2849819758345818 0.9824851761690530
N 0.0236566484259575 -0.0909821148089590 -0.1810741444138830 0.1071394941056757
O 0.2906024851355147 -0.2525089521257645 0.2672420207629431 -0.8194842575378962
N 0.0889158390859103 0.2337760218391930 0.2940400329401740 0.3116552922920345
N 0.0010766248201392 -0.3515531687404121 0.2072424751004396 0.0918298459672651
N 0.0646547335427270 0.1857883024790301 -0.5496900885970659 0.5593901217632046
O 0.0266680781279590 0.1895252921699173 -0.1970589419011619 -0.9963138680841535
N 0.2421810718420667 0.1295193952455433 -0.4304073307224888 0.9989733053171830
O 0.2184899776441057 0.1464420097428071 -0.3327524497841783 -0.8354521971080898
N 0.0575187569056386 0.0609968613449449 0.4271940691906348 0.2899344186932475
O 0.0525595999540276 0.0522517502868822 0.0399896927436285 -0.8678253524624289
N 0.0008023889456646 0.1355332294373632 -0.3536701935288523 0.9219570073558310
O 0.1304925343458012 0.2927270850811249 -0.1822277860058639 -0.9704818863270434
O 0.2348226182529815 -0.3737299970695613 -0.2054697238464528 -0.3320651923316272
N 0.0980447449563474 0.0652201217614929 0.3923972309410454 0.9769593393400061
O 0.1608293355113045 -0.4379982442892763 -0.0683597459832297 -0.1970026432733326
O 0.2594399270602107 0.5595274413915182 -0.1380374945943720 -0.1946060569702309
N 0.0075797391065880 0.2090710356420336 0.1572972864978923 0.1283355164991325
N 0.0696190178355704 0.1127434651161269 -0.1633387731083094 0.1235072004109040
