21
s                      x[A]                      y[A]                      z[A]                      q[e]
N 0.0268251276237588 -0.0454477172050907 0.3776077801175343 0.0707249461841811
O 0.1032206704268826 0.2917325888520095 0.3058026209082441 -0.3496602100029151
N 0.3739171403390315 -0.1814583582879366 0.3271906149578553 0.9824851761690530
N 0.0389938381219593 -0.0112652780805755 -0.1889634861493742 0.1071394941056757
O 0.2576179226672031 -0.3309351134502244 0.3194334071840666 -0.8194842575378962
N 0.1005098927159945 0.1223519954401924 0.2886526649298034 0.3116552922920345
N 0.0305425422399361 -0.0163903170603322 0.2451616843981051 0.0918298459672651
N 0.0896566604184207 0.0359805912401716 -0.5528531554338577 0.5593901217632046
O 0.0482545110979323 0.0629444152411429 -0.1980367190651946 -0.9963138680841535
N 0.2257590182881400 0.0814507893864730 -0.4237643268828653 0.9989733053171830
O 0.2026787571524695 0.1005700014458819 -0.3290814256792165 -0.8354521971080898
N 0.0343502172638050 0.0065310577107825 0.4296000491625122 0.2899344186932475
O 0.0359513432397404 -0.0010325680661310 0.0414656838284268 -0.8678253524624289
N -0.0003123716974100 0.0738867129426281 -0.3511310477536673 0.9219570073558310
O 0.1235943991874563 0.2451942928056083 -0.1781738187578406 -0.9704818863270434
O 0.2595149943515784 -0.4153230741745931 -0.1997860483667802 -0.3320651923316272
N 0.0914779823322548 0.0097357972827636 0.3965789304156774 0.9769593393400061
O 0.1996466535570564 -0.5159719336406028 -0.1025986515228883 -0.1970026432733326
O 0.2307423382328586 0.4884467568689674 -0.0750386809918788 -0.1946060569702309
N 0.0219823854047356 -0.0008723933159500 0.1844843112825520 0.1283355164991325
N 0.0375329014478535 0.0058178058448136 -0.1434413270211696 0.1235072004109040
