21
s                      x[A]                      y[A]                      z[A]                      q[e]
N -1.9706290770040913 1.4179123447998001 0.2207416389079253 0.0707249461841811
O -1.6168518832229093 -0.1150673499792884 0.3204346136417188 -0.3496602100029151
N -1.4912073071934244 0.1453541712055450 -0.1422075476295090 0.9824851761690530
N -3.0354338503772453 -0.6969058690046620 0.0538986484920237 0.1071394941056757
O -1.5634620384947910 0.0592011200166890 -0.2948046911571296 -0.8194842575378962
N -0.4821646754267332 -0.6509344575453754 -0.1764488840222959 0.3116552922920345
N -0.7355982682429912 -2.0103530960557645 -0.1806211320066549 0.0918298459672651
N -1.2468744832456613 -1.0064295900412403 -0.1089805327900891 0.5593901217632046
O -0.9446160506889405 -0.8151236650728403 -0.1284168984690977 -0.9963138680841535
N 0.7228884850290832 0.8887275229252669 -0.1046711762655551 0.9989733053171830
O 0.6977099252921912 0.9827676967639501 -0.1243073759531045 -0.8354521971080898
N 0.5065605425627291 1.7364894315558526 -0.0340806585556820 0.2899344186932475
O 0.5185425169644676 1.3485344781867510 -0.0266345831873034 -0.8678253524624289
N 0.5318655905539339 -0.4057301758898947 -0.1031088031177095 0.9219570073558310
O 0.6551367530131709 -0.2292851913959508 -0.2712895564886622 -0.9704818863270434
O 0.7755354034420316 -0.2478905796962319 0.3923238047707397 -0.3320651923316272
N 0.6016857121604094 0.3441318133102738 -0.0364517082326505 0.9769593393400061
O 1.5411989839528986 -0.5486287732912445 -0.4785244997024879 -0.1970026432733326
O 1.4908135727102176 -0.5044358408267291 0.5245167230197785 -0.1946060569702309
N 2.7678110833321221 0.0197610886048965 0.1059449863904112 0.1283355164991325
N 1.7229834383900897 -1.8878803781749760 0.0589100015673716 0.1235072004109040
