21
s                      x[A]                      y[A]                      z[A]                      q[e]
N       -1.9706290770040913        1.4179123447998001        0.2207416389079253        0.0707249461841811
O       -1.6168518832229093       -0.1150673499792884        0.3204346136417188       -0.3496602100029151
N       -1.4912073071934242        0.1453541712055450       -0.1422075476295090        0.9824851761690530
N       -3.0354338503772453       -0.6969058690046620        0.0538986484920237        0.1071394941056757
O       -1.5634620384947910        0.0592011200166890       -0.2948046911571296       -0.8194842575378962
N       -0.4821646754267331       -0.6509344575453754       -0.1764488840222959        0.3116552922920345
N       -0.7355982682429912       -2.0103530960557645       -0.1806211320066549        0.0918298459672651
N       -1.2468744832456613       -1.0064295900412403       -0.1089805327900891        0.5593901217632046
O       -0.9446160506889405       -0.8151236650728403       -0.1284168984690977       -0.9963138680841535
N        0.7228884850290832        0.8887275229252668       -0.1046711762655551        0.9989733053171830
O        0.6977099252921912        0.9827676967639500       -0.1243073759531045       -0.8354521971080898
N        0.5065605425627291        1.7364894315558526       -0.0340806585556820        0.2899344186932475
O        0.5185425169644676        1.3485344781867510       -0.0266345831873034       -0.8678253524624289
N        0.5318655905539339       -0.4057301758898947       -0.1031088031177095        0.9219570073558310
O        0.6551367530131709       -0.2292851913959508       -0.2712895564886622       -0.9704818863270434
O        0.7755354034420316       -0.2478905796962319        0.3923238047707397       -0.3320651923316272
N        0.6016857121604093        0.3441318133102738       -0.0364517082326505        0.9769593393400061
O        1.5411989839528986       -0.5486287732912445       -0.4785244997024878       -0.1970026432733326
O        1.4908135727102176       -0.5044358408267291        0.5245167230197785       -0.1946060569702309
N        2.7678110833321221        0.0197610886048965        0.1059449863904112        0.1283355164991325
N        1.7229834383900897       -1.8878803781749760        0.0589100015673716        0.1235072004109040

        RMSE         4.971742520E-01 kcal/mol

Coordinates in bohr
s                   x[bohr]                   y[bohr]                   z[bohr]                      q[e]
+       -3.7239492504014775        2.6794660015773504        0.4171412420206846        0.0707249461841811
-       -3.0554072447220211       -0.2174457774430606        0.6055336608997415       -0.3496602100029151
+       -2.8179734068770310        0.2746795747713884       -0.2687333179927716        0.9824851761690530
+       -5.7361386491569286       -1.3169612276430007        0.1018536841822454        0.1071394941056757
-       -2.9545150603051593        0.1118739031519016       -0.5571001267871541       -0.8194842575378962
+       -0.9111591839267917       -1.2300878503842154       -0.3334400659448109        0.3116552922920345
+       -1.3900792653403160       -3.7990167670116088       -0.3413244719627428        0.0918298459672651
+       -2.3562512861560552       -1.9018762897347434       -0.2059433599797449        0.5593901217632046
-       -1.7850656295136869       -1.5403604853670829       -0.2426727679873193       -0.9963138680841535
+        1.3660612559520886        1.6794516184852977       -0.1977998563714208        0.9989733053171830
-        1.3184806738158832        1.8571617918308532       -0.2349068959256898       -0.8354521971080898
+        0.9572606914068813        3.2814894453925079       -0.0644031108454801        0.2899344186932475
-        0.9799033414684135        2.5483608345101429       -0.0503320676897271       -0.8678253524624289
+        1.0050803017018251       -0.7667189132657338       -0.1948473990162232        0.9219570073558310
-        1.2380290379166015       -0.4332862163615266       -0.5126629624604923       -0.9704818863270434
-        1.4655495131018841       -0.4684453047068553        0.7413845435142833       -0.3320651923316272
+        1.1370212095842245        0.6503148782136003       -0.0688837453648058        0.9769593393400061
-        2.9124439845048524       -1.0367581260663445       -0.9042802487594280       -0.1970026432733326
-        2.8172293565376219       -0.9532455870275565        0.9911929547300028       -0.1946060569702309
+        5.2304049145044447        0.0373430454041599        0.2002070086432341        0.1283355164991325
+        3.2559668172569110       -3.5675768723764567        0.1113237690126237        0.1235072004109040
