21
s                      x[A]                      y[A]                      z[A]                      q[e]
N 1.9567569347887879 1.4165450836218076 0.3151403347442479 0.0707249461841811
O 1.6544856526926459 -0.0469787862714320 -0.2269418014554764 -0.3496602100029151
N 1.4697786762854239 0.1140231398394019 0.2624777418803803 0.9824851761690530
N 3.0390642621236270 -0.6781955940093318 0.0631510479389476 0.1071394941056757
O 1.5061379274624114 -0.0159297323649012 0.3949474090978602 -0.8194842575378962
N 0.4955362959253889 -0.6411696701054490 0.0188477817809843 0.3116552922920345
N 0.7560360316145648 -1.9866442172526979 -0.3211005616847338 0.0918298459672651
N 1.2563767692406291 -0.9881920024834874 -0.1055693392939189 0.5593901217632046
O 0.9577397073358240 -0.7998511289818356 -0.0718475529282408 -0.9963138680841535
N -0.7266648514176897 0.8833416210762404 0.0385615314921403 0.9989733053171830
O -0.6984741220303441 0.9801961580002929 0.0529019929506600 -0.8354521971080898
N -0.5238498183384965 1.7351335458925048 -0.0486110490867065 0.2899344186932475
O -0.5314733422161527 1.3479746057058595 -0.0575287689985942 -0.8678253524624289
N -0.5247343402617005 -0.4073460808427873 0.0218377304013623 0.9219570073558310
O -0.6330335697330249 -0.2324132963706517 0.1908394602041116 -0.9704818863270434
O -0.8032760961351364 -0.2510869901733502 -0.4620566251761192 -0.3320651923316272
N -0.6058748858809530 0.3414652540046283 -0.0391845891274924 0.9769593393400061
O -1.4486367329274099 -0.5491283813499792 0.5838422579515141 -0.1970026432733326
O -1.5642805186851789 -0.5209587726769649 -0.4138944968077822 -0.1946060569702309
N -2.7567937008510524 -0.0019410911689734 0.2104516882489775 0.1283355164991325
N -1.7000038840066705 -1.9060660354559094 0.1027548931829537 0.1235072004109040
