21
s                      x[A]                      y[A]                      z[A]                      q[e]
N 1.4798764327466993 -0.3150221778204728 0.0650828495271971 0.0707249461841811
O 0.5488553284322736 -0.2271485753328423 0.2769706983123432 -0.3496602100029151
N 0.7829746181922531 0.2622800784681360 0.2045613277695046 0.9824851761690530
N -0.7159771592317683 0.0630547092540296 0.0416984542241953 0.1071394941056757
O 0.6533390844854698 0.3947217079565169 0.1671605878651537 -0.8194842575378962
N -0.0435504936281634 -0.0187785556305784 -0.5864621559758497 0.3116552922920345
N 1.0145653047662138 -0.3209628471372502 -0.1985762116030858 0.0918298459672651
N -0.0424724424897627 -0.1055837058736608 -0.5564665216268790 0.5593901217632046
O 0.2747587856832665 -0.0719369946703717 -0.7115113811255849 -0.9963138680841535
N 1.2589690779457023 -0.0382760439450378 -0.2126948126419397 0.9989733053171830
O -1.1874941233358811 -0.0531119819875158 -0.2899423408571745 -0.8354521971080898
N -0.9898885272865653 0.0482857643317011 0.4593257700606881 0.2899344186932475
O -1.0093554742554924 0.0573017097065566 0.0725683500369459 -0.8678253524624289
N -0.1393910054212730 -0.0219624496956998 0.3591280333499161 0.9219570073558310
O -0.3440504351381318 -0.1909141924676943 0.3382366012865468 -0.9704818863270434
O -0.4018239339125648 0.4619421640534246 0.1769052286083668 -0.3320651923316272
N -0.8482694802990370 0.0389720364506493 0.6136761282254524 0.9769593393400061
O -0.4159071718986709 -0.5840255307692737 -0.5336999064219570 -0.1970026432733326
O -0.2341479734221334 -0.4138961711656647 0.5755630081775363 -0.1946060569702309
N -0.4282045638132760 -0.2103995637138286 0.3996736931767345 0.1283355164991325
N -0.9389612841727726 0.1031754137183961 0.1111895174977070 0.1235072004109040
