21
s                      x[A]                      y[A]                      z[A]                      q[e]
N        1.9567614802974045        1.4165432200967527        0.3151480474160798        0.0707249461841811
O        1.6544681737749034       -0.0469829018719193       -0.2269590123330541       -0.3496602100029151
N        1.4697832797458659        0.1140244109686104        0.2624932336224836        0.9824851761690530
N        3.0390679736589923       -0.6781910821048760        0.0631586233117611        0.1071394941056757
O        1.5061211532183245       -0.0159336429313873        0.3949146644575184       -0.8194842575378962
N        0.4955492200891713       -0.6411637963129669        0.0188748868231521        0.3116552922920345
N        0.7560424003260879       -1.9866405680697254       -0.3210896408209655        0.0918298459672651
N        1.2563879013400363       -0.9881818354543926       -0.1055472589824464        0.5593901217632046
O        0.9577190683215970       -0.7998478533402463       -0.0718738106236638       -0.9963138680841535
N       -0.7266395506607215        0.8833389672985644        0.0385951934345783        0.9989733053171830
O       -0.6984792419024644        0.9801859727949629        0.0528608387235185       -0.8354521971080898
N       -0.5238354223942692        1.7351302208516499       -0.0485832109824962        0.2899344186932475
O       -0.5314787634059650        1.3479577739384194       -0.0575624608462289       -0.8678253524624289
N       -0.5247149187835393       -0.4073371720488159        0.0218746111643060        0.9219570073558310
O       -0.6330444959651371       -0.2324137386949220        0.1907921077794420       -0.9704818863270434
O       -0.8032916382961787       -0.2510881095933954       -0.4620893436499548       -0.3320651923316272
N       -0.6058528537200901        0.3414682470899385       -0.0391460094026440        0.9769593393400061
O       -1.4486444159090188       -0.5491319199230673        0.5838055333276074       -0.1970026432733326
O       -1.5642910022167407       -0.5209605580184163       -0.4139268628396348       -0.1946060569702309
N       -2.7567842001984317       -0.0019441426965859        0.2104786070889708        0.1283355164991325
N       -1.6999972033921327       -1.9060619579795990        0.1027787115683145        0.1235072004109040

        RMSE         4.067365470E-01 kcal/mol

Coordinates in bohr
s                   x[bohr]                   y[bohr]                   z[bohr]                      q[e]
+        3.6977432906075385        2.6768787308569921        0.5955434985891884        0.0707249461841811
-        3.1264917317209369       -0.0887848171171873       -0.4288903750138778       -0.3496602100029151
+        2.7774878624968542        0.2154749083473232        0.4960403213323125        0.9824851761690530
+        5.7430061468655804       -1.2815954059060992        0.1193525005201848        0.1071394941056757
-        2.8461564913413402       -0.0301102213211591        0.7462805587517846       -0.8194842575378962
+        0.9364523076527583       -1.2116239765903352        0.0356683667447703        0.3116552922920345
+        1.4287130758500544       -3.7542065833757410       -0.6067714828732488        0.0918298459672651
+        2.3742290408713989       -1.8673930311610345       -0.1994554127695924        0.5593901217632046
-        1.8098267442564526       -1.5114933848484249       -0.1358218176717459       -0.9963138680841535
+       -1.3731497426745025        1.6692687241390354        0.0729343453504211        0.9989733053171830
-       -1.3199344715130650        1.8522830405979374        0.0998925079494457       -0.8354521971080898
+       -0.9899054831386872        3.2789209094147740       -0.0918089630522528        0.2899344186932475
-       -1.0043493043342719        2.5472710214254084       -0.1087772861067621       -0.8678253524624289
+       -0.9915674904427367       -0.7697556958907575        0.0413370242014204        0.9219570073558310
-       -1.1962807226026022       -0.4391983139271232        0.3605448306019773       -0.9704818863270434
-       -1.5180011952501089       -0.4744877604904577       -0.8732223049909800       -0.3320651923316272
+       -1.1448959658580342        0.6452814675401458       -0.0739752366755941        0.9769593393400061
-       -2.7375411992418686       -1.0377089354014364        1.1032325685160205       -0.1970026432733326
-       -2.9560815747075844       -0.9844727768204899       -0.7822084067368569       -0.1946060569702309
+       -5.2095671253643401       -0.0036738972453564        0.3977469226660013        0.1283355164991325
+       -3.2125291284553583       -3.6019350787353495        0.1942236163915386        0.1235072004109040
