11

C  1.78230 -0.56060  0.08344
C  0.48693  0.17246 -0.07446
H  1.84539 -0.94509  1.10682
H  2.61504  0.11956 -0.09508
H  1.83394 -1.41325 -0.59674
O -0.57193 -0.68702 -0.18906
O  0.34081  1.39388 -0.02170
C -1.90159 -0.15787  0.11159
H -1.90182  0.29231  1.10634
H -2.55982 -1.02212  0.07047
H -2.18969  0.58972 -0.62912
