25
s                      x[A]                      y[A]                      z[A]                      q[e]
N        2.3118537011820228       -0.4110424887254462       -0.4915653503177349        0.1158659338886357
O        1.5270338649678874        0.8748753556350169        0.3532057337526393       -0.2341991647481463
N        2.5310766577291335        1.9754039691412140       -0.2480476374942177        0.0569852111266852
N        1.5742731974212072        1.2585601618404740       -0.1108208999769483        0.3189271149812888
O        1.3631425016938623        1.0178021243969648       -0.3990737304079691       -0.2877498234141676
N        0.6659020630570113        1.2218416980672697        0.0381196436509847        0.5692545008206258
O        0.6540207040592915        0.5930957830435331        0.5644201917467164       -0.2058946535748549
O        0.5852860054332677        0.9352922789367015       -0.0244742661086053       -0.9992971180892700
N        0.4255932752190421        0.4342971898898587        0.1250027908391849        0.6691943173322236
N       -0.3162396759846221        1.9631565038197829        0.4693866463317763        0.0628076875181509
N        0.4143279144586511       -1.9479856889634461       -0.0053374003983417        0.7576134719858190
O        0.2799954742207240       -1.6398274772658010        0.1324696503963437       -0.9235083265987739
N       -0.0067066455294256       -1.3214684548690139        0.1642389383924736        0.9955526175656415
O        0.2929970089342797       -1.7818568276825750       -0.0107008468699704       -0.9936641819349231
O       -0.4503475830653834       -0.3697385423530635        0.2086684139662088       -0.9934394819660318
N       -0.1928023235233719       -0.7341160744769067        0.2914448545087379        0.8475065253219278
N       -0.5434848678254964       -0.1231423038768857        0.3483570636716485        0.9207393412409772
O       -0.5569920826543815       -0.4135650888385858        0.6279120448567939       -0.6738758902636315
N       -2.8422885130280826        0.1263879275033157       -0.4908550288560556        0.1207489421105395
N       -1.2056722960087929       -0.3211522864259413        0.6363826023908943        0.4308753055723465
O       -1.5176283743880061        0.1657817892466467        0.2208592966137948       -0.7095764258838037
N       -1.6082610249141831        0.0597320527982580       -0.0703016219142656        0.9977500474782615
O       -1.5871285465846450       -0.1407496326265174        0.0602933568438661       -0.9963537733476465
O       -2.1595602183932008       -0.2743978118790890        1.5174114033924599       -0.1586318904925156
N       -2.1324117756819123       -0.4111070643975567        1.4115840283172929        0.3123697133706422

        RMSE         3.947180216E+00 kcal/mol

Coordinates in bohr
s                   x[bohr]                   y[bohr]                   z[bohr]                      q[e]
+        4.3687703373600435       -0.7767577296176804       -0.9289238848652531        0.1158659338886357
-        2.8856757890886584        1.6532748160627000        0.6674621027338643       -0.2341991647481463
+        4.7830416856472251        3.7329724888192413       -0.4687421009309160        0.0569852111266852
+        2.9749451897748846        2.3783340182903761       -0.2094211499331880        0.3189271149812888
-        2.5759659981728333        1.9233672650194227       -0.7541400543358533       -0.2877498234141676
+        1.2583725255551004        2.3089461780114751        0.0720356865004084        0.5692545008206258
-        1.2359200110511657        1.1207885961162323        1.0665995820796870       -0.2058946535748549
-        1.1060302553320984        1.7674462544456753       -0.0462496600668385       -0.9992971180892700
+        0.8042547310005875        0.8207027459477854        0.2362210396039482        0.6691943173322236
+       -0.5976063776144589        3.7098281336306944        0.8870122085141915        0.0628076875181509
+        0.7829662844589693       -3.6811594484521910       -0.0100862249747753        0.7576134719858190
-        0.5291147626448560       -3.0988248250327870        0.2503313591842357       -0.9235083265987739
+       -0.0126737232711405       -2.4972134631343645        0.3103666126977161        0.9955526175656415
-        0.5536841024641090       -3.3672213990971693       -0.0202216698947067       -0.9936641819349231
-       -0.8510335932554445       -0.6987045830732799        0.3943261534297939       -0.9934394819660318
+       -0.3643435878110883       -1.3872783250575553        0.5507509556954178        0.8475065253219278
+       -1.0270375535208351       -0.2327052287852177        0.6582994442080903        0.9207393412409772
-       -1.0525624902651507       -0.7815247529555632        1.1865817956555311       -0.6738758902636315
+       -5.3711468591578502        0.2388385685454857       -0.9275815718416444        0.1207489421105395
+       -2.2783904365085399       -0.6068898659096167        1.2025888295249143        0.4308753055723465
-       -2.8679019878171093        0.3132821782645319        0.4173635828613277       -0.7095764258838037
+       -3.0391728753359151        0.1128772207000945       -0.1328508115934463        0.9977500474782615
-       -2.9992382789409153       -0.2659782579229215        0.1139379316194053       -0.9963537733476465
-       -4.0809773641970448       -0.5185367138763769        2.8674919720583589       -0.1586318904925156
+       -4.0296742427400272       -0.7768797599523366        2.6675072165901912        0.3123697133706422
