23
s                      x[A]                      y[A]                      z[A]                      q[e]
N 1.0855544238913968 -1.5597334214004850 0.4501873697238785 0.2856065124296451
O 1.1217269869689503 -1.3439647030744022 0.4013034276594689 -0.2980193526493612
N 2.5802238859083308 -0.3650427868553933 -0.1172396315862961 0.9235469647741466
O 2.4820806590208253 -0.3878823152063866 -0.1222068516568401 -0.9987019282037162
O 1.3684139396511719 -0.2064028938659190 -0.0108012184180246 -0.9994297377915048
N 1.6522979521807637 0.0726052569079130 -0.1060660489475888 0.3910255639585828
N 1.8027646344313293 -0.5637510928223797 0.0257998400550454 0.3788084070601841
N 0.9492430345519325 -0.5449086043443249 0.1796217465024118 0.3521750120262308
N 1.1600989365605934 0.7710449866277419 -0.1744258488805701 0.5091785922378865
N 0.5143992920343217 0.9607436656781874 0.0345876549011750 0.9946620798872232
O 0.6996915167171134 0.9492355750658582 0.0963107529173015 -0.5088390984708862
O 0.8409644934473590 0.7750079433322973 -0.0523459872986467 -0.9513197152299744
N 1.2928485157642544 1.7676511263883645 -0.4610230715470564 0.0534150746794947
N 0.8716224167404076 1.9284809761967416 -0.4315549805693742 0.0449830180293293
O 0.6334057130892250 1.1110967682459485 -0.2327237983813719 -0.1594766348608674
O -1.0399929708669418 1.2405563215470099 0.7705245216580056 -0.2085098172073890
N -1.1461585308581692 1.2866475339694790 0.4667780103171099 0.7433887315217406
O -1.1553119084596084 1.3609688866313518 0.3237196718391712 -0.4563903046399361
N -0.4955542053579127 0.0148827262292436 -0.0548205319380980 0.2740207269363132
N -1.2403532399984603 -0.1243095521972322 -0.0374466345569728 0.2947455612059413
O -1.2936816610902335 -0.8300914743416365 -0.2664067389841113 -0.8294346811293033
N -1.5353622649075795 -0.7874135830156698 -0.1869886392602118 0.8271270632704910
O -1.7691776854842745 -0.5648490952182981 -0.0626371674896314 -0.6625620378342709
