23
s                      x[A]                      y[A]                      z[A]                      q[e]
N        2.3835801524090932        0.2631445381793449        0.0099506358976776        0.2856065124296451
O        2.1836255564569655        0.3119316823897709        0.0176428521331305       -0.2980193526493612
N        1.4101035649287299        1.9989086542939338       -0.0929407539168979        0.9235469647741466
O        1.4111446434133632        1.8973659191826331       -0.1037439484080030       -0.9987019282037162
O        1.0561002196632618        0.8229649652275245        0.0124519476100448       -0.9994297377915048
N        0.8274743288264345        1.1637891442051651       -0.0539589175787843        0.3910255639585828
N        1.4754353735913581        1.1771770053958617       -0.0807675113407987        0.3788084070601841
N        1.3291938757068269        0.3264648530164321        0.0015792216437156        0.3521750120262308
N        0.3534585986916276        0.7589122346889663       -0.1185718928453582        0.5091785922378865
N        0.5647018007735324        0.1064199751370670        0.0022581969958888        0.9946620798872232
O        0.5923875524436309        0.2568033668248629       -0.0725019539653472       -0.5088390984708862
O        0.3856239213330708        0.4188383309517190       -0.0320045217940295       -0.9513197152299744
N       -0.8139036310382531        1.0596374712404071       -0.7541328813033209        0.0534150746794947
N       -0.0000215408873361        0.0000229532362520        0.0000078965875435        0.0449830180293293
O        0.6105361348011216        0.2713334730649184        0.2977039211187933       -0.1594766348608674
O        1.1255354399475832       -1.5316470732916130       -0.1842311428912573       -0.2085098172073890
N        0.9995657535289457       -1.5660213868210007        0.1179780281425026        0.7433887315217406
O        0.9812950745646114       -1.5470100655759218        0.2789700541738762       -0.4563903046399361
N       -0.3005443981212646       -1.0098055080396597       -0.2928384676829245        0.2740207269363132
N       -1.2942846042603584       -0.1820155025673023        0.1682661334807945        0.2947455612059413
O       -1.7894274589471075        0.3800968452531449        0.1575670068680188       -0.8294346811293033
N       -1.9488522538432773        0.1866853082165570        0.1681877938245979        0.8271270632704910
O       -1.9882793991714212       -0.1680470667502309        0.1809034593882530       -0.6625620378342709

        RMSE         2.341693561E+01 kcal/mol

Coordinates in bohr
s                   x[bohr]                   y[bohr]                   z[bohr]                      q[e]
+        4.5043136861302155        0.4972711085690429        0.0188039766207598        0.2856065124296451
-        4.1264542622541152        0.5894654495699636        0.0333401586035660       -0.2980193526493612
+        2.6647095462470398        3.7773899064229970       -0.1756325707965089        0.9235469647741466
-        2.6666768994581034        3.5855019470327281       -0.1960476496647524       -0.9987019282037162
-        1.9957401761994171        1.5551783951269462        0.0235307707115337       -0.9994297377915048
+        1.5636998573289949        2.1992427503287084       -0.1019675762500543        0.3910255639585828
+        2.7881687719002204        2.2245421413847706       -0.1526284762689187        0.3788084070601841
+        2.5118123927217360        0.6169291617889017        0.0029842963980179        0.3521750120262308
+        0.6679399482152828        1.4341362768213222       -0.2240684036548595        0.5091785922378865
+        1.0671317460148257        0.2011046072870880        0.0042673738595614        0.9946620798872232
-        1.1194502342487487        0.4852880313944736       -0.1370088365550574       -0.5088390984708862
-        0.7287235987445981        0.7914897363426154       -0.0604797809669620       -0.9513197152299744
+       -1.5380549551779759        2.0024246129170651       -1.4251046078656728        0.0534150746794947
+       -0.0000407063775645        0.0000433753302092        0.0000149223877829        0.0449830180293293
-        1.1537460844697218        0.5127459527619842        0.5625788773894201       -0.1594766348608674
-        2.1269537259976183       -2.8943934893801821       -0.3481464038445632       -0.2085098172073890
+        1.8889055185565891       -2.9593515277013442        0.2229461620108860        0.7433887315217406
-        1.8543789391878336       -2.9234253372650474        0.5271769995927594       -0.4563903046399361
+       -0.5679466009897524       -1.9082558501737601       -0.5533845029194603        0.2740207269363132
+       -2.4458434304486456       -0.3439594504397676        0.3179769084684315        0.2947455612059413
-       -3.3815278187839644        0.7182789386789691        0.2977584893886882       -0.8294346811293033
+       -3.6827970187450121        0.3527841041759747        0.3178288679734575        0.8271270632704910
-       -3.7573035253238283       -0.3175629323444668        0.3418579933916809       -0.6625620378342709
