21
s                      x[A]                      y[A]                      z[A]                      q[e]
N 0.0265777673414032 -0.0434364448258530 0.3754183581887216 0.0707249461841811
O 0.1103344973814335 0.2982920315031350 0.3087861120137479 -0.3496602100029151
N 0.3655084395167892 -0.1886075767981289 0.3207033208921415 0.9824851761690530
N 0.0369191290054692 -0.0079703851723757 -0.1892939289046989 0.1071394941056757
O 0.2660558529548169 -0.3204329126793368 0.3153642901247057 -0.8194842575378962
N 0.0922701246196254 0.1322574409100242 0.2875628925873790 0.3116552922920345
N 0.0297952027787291 -0.0193114314620837 0.2474706174326451 0.0918298459672651
N 0.0794830748042378 0.0471916855267864 -0.5526770979845623 0.5593901217632046
O 0.0585928635412987 0.0494508749007525 -0.1937660164027974 -0.9963138680841535
N 0.2186210419215498 0.0876121132280893 -0.4236573691907074 0.9989733053171830
O 0.2052190488960356 0.0953692402999323 -0.3347829120994591 -0.8354521971080898
N 0.0296971674312037 0.0090650554429218 0.4296358469888039 0.2899344186932475
O 0.0398582012481569 -0.0065150501229429 0.0357876305469258 -0.8678253524624289
N -0.0050371026488872 0.0841125168373961 -0.3441717694176242 0.9219570073558310
O 0.1257761641117114 0.2352327271747290 -0.1842783186855608 -0.9704818863270434
O 0.2608911623671394 -0.4229330032862152 -0.2050780570138620 -0.3320651923316272
N 0.0851630244418365 0.0180146674895948 0.4008301572147523 0.9769593393400061
O 0.1969051956527978 -0.5123515972278782 -0.0954846394855517 -0.1970026432733326
O 0.2279326719304914 0.4922812852620611 -0.0762669241104218 -0.1946060569702309
N 0.0226816248284461 -0.0004510259208958 0.1847841653030503 0.1283355164991325
N 0.0365794524503853 0.0023914803382676 -0.1470056404139693 0.1235072004109040
