21
s                      x[A]                      y[A]                      z[A]                      q[e]
N       -2.0234887352380713        1.5178907753961943       -0.4875852091464331        0.0707249461841811
O       -1.7043414772931298        0.1292045743410317        0.2195256256766420       -0.3496602100029151
N       -1.5405251755202403        0.2091550183649499       -0.2990755448671931        0.9824851761690530
N       -3.1146442091866047       -0.5097087286826908        0.0646734139907609        0.1071394941056757
O       -1.5912677642171842        0.0955414618750629       -0.4074887092226223       -0.8194842575378962
N       -0.6217096060332949       -0.3467790302701896        0.2485244989003066        0.3116552922920345
N       -0.8477743302834465       -1.8342676291444633        0.4591163423752744        0.0918298459672651
N       -1.3937064361470457       -0.6881636642676259        0.2205701105710073        0.5593901217632046
O       -1.0575852718590129       -0.5636249037883811        0.1966009539115550       -0.9963138680841535
N        1.3040030759104468       -0.4820410769855469        0.0199733327990946        0.9989733053171830
O        1.3570942167325302       -0.5546235973624996        0.0208579707789967       -0.8354521971080898
N        1.7575971392995076       -1.2178017018714331       -0.1305836620666134        0.2899344186932475
O        1.4887883971731497       -0.9299345865172538       -0.1089185933550559       -0.8678253524624289
N        0.2444871842218354        0.2782275107962235        0.1453508260831167        0.9219570073558310
O        0.4620754208126441        0.2510354323695989        0.2765119792879235       -0.9704818863270434
O        0.4830897058983126        0.3872411987707572       -0.3813593747940831       -0.3320651923316272
N        0.8219073489156916       -0.1849403278608129        0.0067111861933570        0.9769593393400061
O        0.8862371794268386        1.0672201464317890        0.5568613428660257       -0.1970026432733326
O        0.7959353841522818        1.1095841911816637       -0.4434497188484863       -0.1946060569702309
N        2.1040744479663505        1.5983368836884562       -0.0657203902724053        0.1283355164991325
N        0.0246474204198913        2.1912621133060988        0.2140178791307871        0.1235072004109040

        RMSE         6.282439806E-01 kcal/mol

Coordinates in bohr
s                   x[bohr]                   y[bohr]                   z[bohr]                      q[e]
+       -3.8238395275490018        2.8683978538576289       -0.9214025081108337        0.0707249461841811
-       -3.2207386163422171        0.2441612596609057        0.4148433100486262       -0.3496602100029151
+       -2.9111706711061043        0.3952457024748577       -0.5651708706210697        0.9824851761690530
+       -5.8858245336058639       -0.9632099009655767        0.1222150400408908        0.1071394941056757
-       -3.0070602666400803        0.1805471965697395       -0.7700420596470775       -0.8194842575378962
+       -1.1748608849692113       -0.6553173932625083        0.4696432383882247        0.3116552922920345
+       -1.6020613004291424       -3.4662634598758832        0.8676041468111970        0.0918298459672651
+       -2.6337234636057945       -1.3004408549573223        0.4168171004411543        0.5593901217632046
-       -1.9985465181313964       -1.0650967056475587        0.3715219588965959       -0.9963138680841535
+        2.4642086802253389       -0.9109256167234163        0.0377441288029128        0.9989733053171830
-        2.5645363960671905       -1.0480867017313189        0.0394158523051061       -0.8354521971080898
+        3.3213772321642212       -2.3013116916534524       -0.2467673577652357        0.2899344186932475
-        2.8134023294165864       -1.7573216831084775       -0.2058263114111666       -0.8678253524624289
+        0.4620138193636233        0.5257737959727236        0.2746732534061427        0.9219570073558310
-        0.8731959946415734        0.4743882149644327        0.5225319112624429       -0.9704818863270434
-        0.9129072381757800        0.7317798101707078       -0.7206647737366424       -0.3320651923316272
+        1.5531797899517652       -0.3494865692093144        0.0126823038823987        0.9769593393400061
-        1.6747455513149536        2.0167537923270804        1.0523154278714579       -0.1970026432733326
-        1.5040998896088795        2.0968102344709836       -0.8379985190349133       -0.1946060569702309
+        3.9761244542302703        3.0204189663889256       -0.1241935384730487        0.1283355164991325
+        0.0465768742926113        4.1408852632404667        0.4044351775085240        0.1235072004109040
