25
s                      x[A]                      y[A]                      z[A]                      q[e]
N 0.0673783432945399 -0.0036137626065413 0.2409343515925387 0.1158659338886357
O -0.1667448967149897 0.4419837176448339 0.3008678544315329 -0.2341991647481463
N -0.0811662364129354 -0.0062047734964819 -0.3916118651854345 0.0569852111266852
N -0.5192256664674656 -0.0328327719575943 0.1485419334858688 0.3189271149812888
O -0.2315468980998340 -0.3400193719169103 0.2658054363050148 -0.2877498234141676
N 0.0263234380707653 0.1189994362505212 -0.5570450478640383 0.5692545008206258
O -0.1548982675100634 -0.4972764392110532 0.0452468993067237 -0.2058946535748549
O -0.0602306357815296 0.1621976847522301 -0.2673113208859366 -0.9992971180892700
N -0.1921396547809595 -0.0157927064310300 0.2387306018085938 0.6691943173322236
N 0.0173326234577562 -0.0217495029220260 0.3850490136142652 0.0628076875181509
N 0.0565110272152504 0.0038346114183563 0.2908704912926188 0.7576134719858190
O 0.0380188693199543 -0.0742075024668707 -0.0564455942270958 -0.9235083265987739
N 0.1038145069295483 -0.0105892039978678 -0.4790544977703173 0.9955526175656415
O 0.0711262215237783 0.0521370616684107 0.0965632474908585 -0.9936641819349231
O -0.0396062716908019 0.1153803291714497 -0.1275203705383098 -0.9934394819660318
N -0.0304994233950859 -0.0528619026140295 0.2968711945265131 0.8475065253219278
N -0.0819473542511197 0.0199171359272568 -0.3986800275176909 0.9207393412409772
O 0.1574596514430429 -0.2548795649382167 -0.2300308385502749 -0.6738758902636315
N -0.0652127711307816 0.0236925526472216 0.2203950839924444 0.1207489421105395
N 0.2652025073535072 0.0764005087916483 -0.4875740560566639 0.4308753055723465
O 0.3476065527299225 -0.2120556243201096 -0.1273549792194762 -0.7095764258838037
N 0.4501045304676909 -0.0063944104635720 0.1029010298411235 0.9977500474782615
O 0.3038299441385897 0.1240331912368976 -0.0373669126978968 -0.9963537733476465
O -0.0316855448260586 -0.3703929336584977 -0.1426364113429361 -0.1586318904925156
N -0.0339648737235014 -0.2009802599996277 -0.0895699519231992 0.3123697133706422
