25
s                      x[A]                      y[A]                      z[A]                      q[e]
N 0.0675909109510514 -0.0032186112741388 0.2411383226852318 0.1158659338886357
O -0.1679748111477750 0.4426430777586589 0.3009510393647602 -0.2341991647481463
N -0.0812649522484512 -0.0056491118730226 -0.3914365635740117 0.0569852111266852
N -0.5181579447453480 -0.0344463653970686 0.1481101012187289 0.3189271149812888
O -0.2323797315589520 -0.3383968064094711 0.2662777457505912 -0.2877498234141676
N 0.0278253792196421 0.1208769613184084 -0.5564001445892343 0.5692545008206258
O -0.1549679534660945 -0.4989141473478099 0.0444792869454674 -0.2058946535748549
O -0.0613027347461102 0.1602747873142978 -0.2684455715350261 -0.9992971180892700
N -0.1921189316799168 -0.0140254032925490 0.2396460648059100 0.6691943173322236
N 0.0171494357645245 -0.0220100810493971 0.3840638065473522 0.0628076875181509
N 0.0564641985271262 0.0040191559398139 0.2928112391245657 0.7576134719858190
O 0.0382868940976571 -0.0746949151685119 -0.0576998187310741 -0.9235083265987739
N 0.1041952902049040 -0.0100781974652163 -0.4770650449771195 0.9955526175656415
O 0.0715036331735208 0.0518811886096806 0.0955767322277272 -0.9936641819349231
O -0.0396373370663157 0.1142373405469984 -0.1282403593566791 -0.9934394819660318
N -0.0300421376544605 -0.0519068285656763 0.2982958649476926 0.8475065253219278
N -0.0816498815365614 0.0213747472952065 -0.3984502380094957 0.9207393412409772
O 0.1573038037267026 -0.2564856848815616 -0.2309049615295891 -0.6738758902636315
N -0.0646935385507587 0.0234967384130682 0.2206270571339861 0.1207489421105395
N 0.2655250182649473 0.0752403110795575 -0.4874913506642531 0.4308753055723465
O 0.3468057885406840 -0.2112779056361712 -0.1273709004143471 -0.7095764258838037
N 0.4509092247337654 -0.0073004031815035 0.1035888195121425 0.9977500474782615
O 0.3028274419092500 0.1252393624592888 -0.0375362475232713 -0.9963537733476465
O -0.0323746185063154 -0.3699253777042851 -0.1426364660080517 -0.1586318904925156
N -0.0330852063193651 -0.2019015865159272 -0.0898664292717339 0.3123697133706422
