25
s                      x[A]                      y[A]                      z[A]                      q[e]
N        1.7561911659428593        0.8270891520807788       -1.4041851866010180        0.1158659338886357
O        1.7925570054056412       -0.4028477654727706       -0.2727253255068518       -0.2341991647481463
N        3.3768000788346266       -0.1822439310919712        0.0401706303051594        0.0569852111266852
N        2.1722714958443370       -0.1411046317024204        0.1281854128807869        0.3189271149812888
O        1.9350671874388379        0.2180508090672723        0.1853214898162408       -0.2877498234141676
N        1.4806185751772598       -0.3278992706286283        0.4664984596440193        0.5692545008206258
O        0.7124111152792484       -0.4146484504005692        0.8909577034920975       -0.2058946535748549
O        1.2025174693707292       -0.3522856702939606        0.3457968685386920       -0.9992971180892700
N        0.6511672603420823       -0.3847660244614312        0.3721450040915686        0.6691943173322236
N        1.0763734387814117       -1.0632465263063984        1.6532923235146240        0.0628076875181509
N       -1.4060023178541541       -1.3330381952654262       -0.2740839061497748        0.7576134719858190
O       -1.2304202650023237       -1.0557593603859061       -0.1282543513838538       -0.9235083265987739
N       -1.0485906556158793       -0.6664510688685034       -0.1222662879320949        0.9955526175656415
O       -1.3029829863333193       -1.1582682338241201       -0.2858141664523560       -0.9936641819349231
O       -0.3437837461068931        0.1502926101901230       -0.0096501106102944       -0.9934394819660318
N       -0.6177615449027827       -0.2085708367665446        0.0671639722546574        0.8475065253219278
N       -0.1944699017640253        0.3469874156793520        0.1402495559030771        0.9207393412409772
O       -0.5497302886331816        0.3243287649624831        0.3280182142929036       -0.6738758902636315
N       -2.3874407462256420        1.3482065317390919       -0.2262446448118048        0.1207489421105395
N       -0.6714745795073210        0.9212558147140830        0.2115612671091061        0.4308753055723465
O       -0.9518593677511837        0.8934654434134457       -0.1614548649281473       -0.7095764258838037
N       -1.2280994041033364        0.7781301946279203       -0.0335289324742663        0.9977500474782615
O       -1.1203705418723271        0.9017164562383148        0.1463325442444274       -0.9963537733476465
O       -0.4612730343614548        2.3137583746083381       -0.0258303933772669       -0.1586318904925156
N       -0.5291007774667063        2.2496403918535139        0.1238644854835377        0.3123697133706422

        RMSE         8.171734936E-01 kcal/mol

Coordinates in bohr
s                   x[bohr]                   y[bohr]                   z[bohr]                      q[e]
+        3.3187203275804653        1.5629719787698106       -2.6535254321008193        0.1158659338886357
-        3.3874418044874894       -0.7612719469962026       -0.5153761726842880       -0.2341991647481463
+        6.3812273294218480       -0.3443911177906341        0.0759114895637677        0.0569852111266852
+        4.1049981972843996       -0.2666491089511687        0.2422353236234214        0.3189271149812888
-        3.6567470186193720        0.4120563105716412        0.3502068609145171       -0.2877498234141676
+        2.7979636033506132       -0.6196398182254855        0.8815543266751377        0.5692545008206258
-        1.3462618966097442       -0.7835720096025600        1.6836660489669257       -0.2058946535748549
-        2.2724286781893008       -0.6657234347789202        0.6534613765790723       -0.9992971180892700
+        1.2305277839112321       -0.7271024086133122        0.7032521366904476        0.6691943173322236
+        2.0340510080141159       -2.0092447385634848        3.1242696967644603        0.0628076875181509
+       -2.6569593125032562       -2.5190771038262296       -0.5179435180187610        0.7576134719858190
-       -2.3251573200676354       -1.9950960455178934       -0.2423655985137169       -0.9235083265987739
+       -1.9815491568282795       -1.2594099961801051       -0.2310497985680288        0.9955526175656415
-       -2.4622809903011338       -2.1888097417453363       -0.5401104973709694       -0.9936641819349231
-       -0.6496571265259568        0.2840118719395248       -0.0182360661338312       -0.9934394819660318
+       -1.1674001307059776       -0.3941417592463394        0.1269215130591507        0.8475065253219278
+       -0.3674948539786960        0.6557111846143667        0.2650332498739029        0.9207393412409772
-       -1.0388396883855959        0.6128925403870759        0.6198645891753244       -0.6738758902636315
+       -4.5116091511251284        2.5477411055402506       -0.4275404160457945        0.1207489421105395
+       -1.2689030554757941        1.7409211812951388        0.3997928535910397        0.4308753055723465
-       -1.7987535150011824        1.6884049906121512       -0.3051054763369848       -0.7095764258838037
+       -2.3207715285932653        1.4704529577959655       -0.0633604996553324        0.9977500474782615
-       -2.1171934831694803        1.7039971451087939        0.2765284318634080       -0.9963537733476465
-       -0.8716797040020476        4.3723696484942165       -0.0488123691958741       -0.1586318904925156
+       -0.9998555621788833        4.2512042213707710        0.2340699542346331        0.3123697133706422
