21
s                      x[A]                      y[A]                      z[A]                      q[e]
N 1.8233641834278205 1.0925417479542858 -1.3517871641078272 0.0707249461841811
O 1.6331677961201636 -0.1077719860136468 -0.3820776608537517 -0.3496602100029151
N 1.5197025706113239 0.3766737799395774 -0.1565436092367160 0.9824851761690530
N 3.1358491364366707 -0.2679224735234119 0.0834123288610529 0.1071394941056757
O 1.6041508687357346 0.4165105753900388 -0.0199595470815331 -0.8194842575378962
N 0.6817776059342046 -0.1770604439193227 0.1973913205221144 0.3116552922920345
N 1.0016278784573787 -1.2946384707777934 1.3163902125983298 0.0918298459672651
N 1.4472049169863042 -0.4148648919082927 0.4622799304582101 0.5593901217632046
O 1.1097204386072166 -0.3283700203965403 0.3777075851280969 -0.9963138680841535
N -1.1726705087063307 -0.5822250960181792 -0.2425830898922909 0.9989733053171830
O -1.2097370147782800 -0.6590423899746480 -0.2730974612852276 -0.8354521971080898
N -1.5302668679600118 -1.3807205037615078 -0.2990091542016224 0.2899344186932475
O -1.3172826246382983 -1.0596273535147653 -0.2183898139736244 -0.8678253524624289
N -0.2630746213639443 0.3125750628578436 0.0402292881563893 0.9219570073558310
O -0.4146460923899564 0.2771356879756635 -0.1623479711926477 -0.9704818863270434
O -0.6683565936069815 0.3370877551094122 0.4567841453555993 -0.3320651923316272
N -0.7736595651033508 -0.2306476897598070 -0.0507084231283783 0.9769593393400061
O -0.8532137303877595 1.1040648418388439 -0.4162402032763414 -0.1970026432733326
O -1.1056593939865289 0.9477725228909097 0.5436458855377080 -0.1946060569702309
N -2.2816129183637304 1.3737429812660056 -0.1872316111413803 0.1283355164991325
N -0.3479013735970884 2.2064342374432484 0.3876691728327043 0.1235072004109040
