21
s                      x[A]                      y[A]                      z[A]                      q[e]
N 0.0274874917764934 -0.0438937558513484 0.3740597470349346 0.0707249461841811
O 0.1127039387087269 0.2976390799820553 0.3043346541884400 -0.3496602100029151
N 0.3635346393602094 -0.1871016678477746 0.3275301923938210 0.9824851761690530
N 0.0395491032553341 -0.0089794190343550 -0.1888381606846175 0.1071394941056757
O 0.2679704315208806 -0.3209933691890665 0.3098049038303584 -0.8194842575378962
N 0.0876732519750374 0.1302776104178962 0.2878216346720135 0.3116552922920345
N 0.0303389316800454 -0.0194180915759507 0.2506360890199174 0.0918298459672651
N 0.0728802896823831 0.0461751999131961 -0.5520020685393036 0.5593901217632046
O 0.0654631332186794 0.0510163000293066 -0.1936012216109878 -0.9963138680841535
N 0.2175966287996815 0.0831069132279743 -0.4247250906722580 0.9989733053171830
O 0.2055577360334044 0.0993105792753306 -0.3364162255891288 -0.8354521971080898
N 0.0285960830452931 0.0057394685825920 0.4278868053775803 0.2899344186932475
O 0.0409882337007207 -0.0024478161952477 0.0345142338533351 -0.8678253524624289
N -0.0050870655763806 0.0807320374927626 -0.3408726665050363 0.9219570073558310
O 0.1252568334137689 0.2380991394790362 -0.1875316435043944 -0.9704818863270434
O 0.2600576476916496 -0.4196968266931319 -0.2080512409799733 -0.3320651923316272
N 0.0844179544546021 0.0140768151769533 0.4018275043552277 0.9769593393400061
O 0.1965671895597868 -0.5143793809737689 -0.0974274312563136 -0.1970026432733326
O 0.2270300782903550 0.4897399049303621 -0.0786157961268069 -0.1946060569702309
N 0.0224860000673633 0.0013467893429151 0.1858438721319523 0.1283355164991325
N 0.0346940095719937 0.0034101965626133 -0.1449471657342908 0.1235072004109040
