25
s                      x[A]                      y[A]                      z[A]                      q[e]
N       -1.7171430385412338        0.7864959059576765       -1.3594399656255316        0.1158659338886357
O       -1.8792495292775635        0.3112728828454470        0.1955671000253290       -0.2341991647481463
N       -3.3904541416783580       -0.1883911255239229        0.0331022981820906        0.0569852111266852
N       -2.1331573403293955       -0.1431389555545230        0.0853987831039223        0.3189271149812888
O       -1.8375970948325475       -0.3889349627038285       -0.1939521969994742       -0.2877498234141676
N       -1.3484771422154345       -0.3792981295130251        0.6496672202945017        0.5692545008206258
O       -0.9446656814595551       -0.3758165789158863       -0.0225042287956499       -0.2058946535748549
O       -1.0608763329398911       -0.2902302001296531        0.6012020995557005       -0.9992971180892700
N       -0.6158841044165655       -0.3412049078225448        0.3576033551789747        0.6691943173322236
N       -1.0754677863828155       -1.0835564486820317        1.7394999189167724        0.0628076875181509
N        1.2334878084426140       -1.1389581887381526       -0.2079733730908825        0.7576134719858190
O        1.0583097210329322       -0.9414059546466067       -0.1948450988241921       -0.9235083265987739
N        0.8960425046869098       -0.5418570957792191       -0.0867199091573753        0.9955526175656415
O        1.1607329328932410       -1.0197895982999443       -0.1509177177746308       -0.9936641819349231
O        0.3526267066780340        0.1328067421710489        0.1846803533367047       -0.9934394819660318
N        0.5220428805027069       -0.1566408025956421        0.0116756592329025        0.8475065253219278
N        0.1774584577711520        0.3109314660664113        0.1808317420504472        0.9207393412409772
O        0.4068373645840286        0.3304259487666373       -0.0880529803710226       -0.6738758902636315
N        2.3938600166347346        1.3212418914718838       -0.2558896047215102        0.1207489421105395
N        0.6086741669585853        0.8965224745474183        0.0856328541253990        0.4308753055723465
O        0.9849277258877136        0.8071432236394656        0.2124718768628511       -0.7095764258838037
N        1.1164077587821903        0.7122108471753043       -0.0005441981814524        0.9977500474782615
O        0.9748704923476733        0.8719225244294276       -0.0424538048310799       -0.9963537733476465
O        0.6691054288904841        2.1277014177301079        0.6274712737265146       -0.1586318904925156
N        0.6271572351637504        2.1539211587566585        0.4826361001549561        0.3123697133706422

        RMSE         4.336682443E-01 kcal/mol

Coordinates in bohr
s                   x[bohr]                   y[bohr]                   z[bohr]                      q[e]
+       -3.2449300610794078        1.4862618610538443       -2.5689692190340589        0.1158659338886357
-       -3.5512669317301375        0.5882204988596150        0.3695682581978885       -0.2341991647481463
+       -6.4070297686962903       -0.3560076317069622        0.0625542776873919        0.0569852111266852
+       -4.0310831557325946       -0.2704934238821290        0.1613803115137886        0.3189271149812888
-       -3.4725552381704712       -0.7349805601253908       -0.3665165337598498       -0.2877498234141676
+       -2.5482524852272177       -0.7167695846780504        1.2276931190440861        0.5692545008206258
-       -1.7851594180775439       -0.7101904075575339       -0.0425268290884201       -0.2058946535748549
-       -2.0047657222364093       -0.5484555915818593        1.1361073142105054       -0.9992971180892700
+       -1.1638522823701807       -0.6447838284466930        0.6757724028330835        0.6691943173322236
+       -2.0323395730159053       -2.0476249294827400        3.2871784420087984        0.0628076875181509
+        2.3309541370477285       -2.1523190450626148       -0.3930127165294288        0.7576134719858190
-        1.9999155286619181       -1.7789994271572600       -0.3682038736654882       -0.9235083265987739
+        1.6932749306275219       -1.0239615101586952       -0.1638768779320216        0.9955526175656415
-        2.1934673479676454       -1.9271230463775488       -0.2851931540731910       -0.9936641819349231
-        0.6663679001436352        0.2509683703175730        0.3489952885591537       -0.9934394819660318
+        0.9865180698952243       -0.2960082169776673        0.0220637982843588        0.8475065253219278
+        0.3353478838336006        0.5875753146526015        0.3417224672647811        0.9207393412409772
-        0.7688111966668502        0.6244145479135044       -0.1663960174315467       -0.6738758902636315
+        4.5237398141235694        2.4967853203637351       -0.4835612712753146        0.1207489421105395
+        1.1502274751929187        1.6941819422123572        0.1618226416382856        0.4308753055723465
-        1.8612436552977789        1.5252796366977486        0.4015136566327884       -0.7095764258838037
+        2.1097049084345261        1.3458834447416250       -0.0010283855209173        0.9977500474782615
-        1.8422382383273339        1.6476947737894307       -0.0802260641143794       -0.9963537733476465
-        1.2644260096600128        4.0207729562582450        1.1857488589352947       -0.1586318904925156
+        1.1851554120588381        4.0703210858788559        0.9120500475519016        0.3123697133706422
