25
s                      x[A]                      y[A]                      z[A]                      q[e]
N 0.0652626450434577 -0.0037213911822180 0.2440892251991813 0.1158659338886357
O -0.1736045667053444 0.4405397273706075 0.3071232666205709 -0.2341991647481463
N -0.0838370038340047 -0.0058778128984705 -0.3910997084549150 0.0569852111266852
N -0.5109709288740086 -0.0332648754828298 0.1396954985173457 0.3189271149812888
O -0.2389637855615002 -0.3389371178292300 0.2738847606746763 -0.2877498234141676
N 0.0398173324662981 0.1158758522532736 -0.5528340303661751 0.5692545008206258
O -0.1602196478551070 -0.4974547301681536 0.0426653585309279 -0.2058946535748549
O -0.0733406123355417 0.1659596282233320 -0.2738753616837149 -0.9992971180892700
N -0.1839756479509517 -0.0176381006473540 0.2433976827640824 0.6691943173322236
N 0.0174774516868755 -0.0213805595663435 0.3802602181731446 0.0628076875181509
N 0.0592004732598452 0.0042992614271888 0.2958853238214729 0.7576134719858190
O 0.0357429265243119 -0.0749918296612696 -0.0566905020314339 -0.9235083265987739
N 0.1079176511210683 -0.0101342277883634 -0.4758683663153088 0.9955526175656415
O 0.0690872965546323 0.0519510763582838 0.0966963243232671 -0.9936641819349231
O -0.0428442300648329 0.1157809439739275 -0.1234186564455315 -0.9934394819660318
N -0.0262949164525385 -0.0526457058006365 0.2964039291002626 0.8475065253219278
N -0.0784289774074621 0.0201967401470349 -0.4043967247241020 0.9207393412409772
O 0.1557847539556816 -0.2567772539541836 -0.2262376052389463 -0.6738758902636315
N -0.0646777433204791 0.0229283575863915 0.2203627779000471 0.1207489421105395
N 0.2613980257729800 0.0753925472236350 -0.4894203557856254 0.4308753055723465
O 0.3497893638813450 -0.2116976851904148 -0.1256562918422477 -0.7095764258838037
N 0.4478844318244118 -0.0078864111861309 0.1035222841263927 0.9977500474782615
O 0.3054497662241374 0.1261531150833246 -0.0348866403197652 -0.9963537733476465
O -0.0342066268834511 -0.3703716454220743 -0.1400828029942358 -0.1586318904925156
N -0.0305329182035466 -0.2019364436906241 -0.0949348496520554 0.3123697133706422
