25
s                      x[A]                      y[A]                      z[A]                      q[e]
N 0.0606972186883433 -0.0059367296895545 0.2453844218633625 0.1158659338886357
O -0.1658426800620275 0.4277624444855821 0.3147438051474309 -0.2341991647481463
N -0.0870801484586551 -0.0135851256956769 -0.3930885217226083 0.0569852111266852
N -0.5119934614591591 -0.0118315394001102 0.1318920177609019 0.3189271149812888
O -0.2395299541972987 -0.3590256157258830 0.2821707695471786 -0.2877498234141676
N 0.0187105120900345 0.1030287820011667 -0.5557828128101041 0.5692545008206258
O -0.1558694826280071 -0.4859393741759527 0.0506720898422478 -0.2058946535748549
O -0.0578972197147577 0.1758282667071024 -0.2641420099199401 -0.9992971180892700
N -0.1923343014787269 -0.0244811065451504 0.2383197824738305 0.6691943173322236
N 0.0184665058487445 -0.0107168198673977 0.3864421697796622 0.0628076875181509
N 0.0554200001526403 0.0067996213906355 0.2829568195539417 0.7576134719858190
O 0.0324372350633295 -0.0755255175803333 -0.0581617118073205 -0.9235083265987739
N 0.1006597422587151 -0.0071859057231609 -0.4844807277480696 0.9955526175656415
O 0.0649056141342067 0.0486179820365093 0.0926572789069016 -0.9936641819349231
O -0.0423161483846932 0.1158619071592314 -0.1257751794866056 -0.9934394819660318
N -0.0324153126958319 -0.0514884973055661 0.2941378095446778 0.8475065253219278
N -0.0829902920874024 0.0161443250093092 -0.3952521706437967 0.9207393412409772
O 0.1575570159724535 -0.2493397598915559 -0.2265167837739976 -0.6738758902636315
N -0.0664623007140680 0.0218181772361602 0.2184597340064736 0.1207489421105395
N 0.2677379241185543 0.0776833675560411 -0.4873688767022335 0.4308753055723465
O 0.3490361975617130 -0.2093958505386579 -0.1297438051854383 -0.7095764258838037
N 0.4506246051803380 -0.0079530270356411 0.0987342838461111 0.9977500474782615
O 0.3062454480311824 0.1226119934121471 -0.0387490594449361 -0.9963537733476465
O -0.0265767145367954 -0.3701723750469437 -0.1432869768382007 -0.1586318904925156
N -0.0376280243923346 -0.1986428320471858 -0.0845515389590725 0.3123697133706422
