25
s                      x[A]                      y[A]                      z[A]                      q[e]
N        1.8893503232366633        1.2217319362640056       -0.9045668405516865        0.1158659338886357
O        1.7937630395551771       -0.3810925553271517       -0.4013755194033709       -0.2341991647481463
N        3.3596016286250987       -0.4167286448183214        0.0309492860707412        0.0569852111266852
N        2.1594342878148223       -0.3255695299363188        0.0760844618533315        0.3189271149812888
O        1.9270566749977560       -0.0292098877449814        0.2853735085450339       -0.2877498234141676
N        1.4208959562990917       -0.6445659768111189        0.2335835849553756        0.5692545008206258
O        0.6961049682672573       -0.6449676761971148        0.7265304925555103       -0.2058946535748549
O        1.1351579100410543       -0.6444250672488258        0.1292702830471930       -0.9992971180892700
N        0.5867097954581011       -0.5669833828502816        0.2241015106966474        0.6691943173322236
N        0.9260218273019224       -1.7476881658855217        1.0071892957906030        0.0628076875181509
N       -1.6475096191317673       -1.1529041965055105       -0.2311518123710976        0.7576134719858190
O       -1.4091427080633230       -0.9155038849823937       -0.0939666127972684       -0.9235083265987739
N       -1.1717544548126051       -0.5574698113820966       -0.0982420812159303        0.9955526175656415
O       -1.5132140014373627       -0.9977276301841816       -0.2464382140633673       -0.9936641819349231
O       -0.3322746250793889        0.1212207379843707       -0.0387407005336945       -0.9934394819660318
N       -0.6545172432039033       -0.1831706288011414        0.0585119427662260        0.8475065253219278
N       -0.1373832721388442        0.2964434301699768        0.1037778813840617        0.9207393412409772
O       -0.4737370580326896        0.3112318942854776        0.3258730376273981       -0.6738758902636315
N       -2.1547152326494401        1.6477400879458113       -0.0912393172281596        0.1207489421105395
N       -0.5026810237394042        0.9404939058239499        0.2096986303600085        0.4308753055723465
O       -0.8139433655928752        0.9641256851269204       -0.1438029551679347       -0.7095764258838037
N       -1.0933813429720012        0.8959061063723364        0.0028122223993532        0.9977500474782615
O       -0.9579563397021850        0.9901501633221679        0.1773764298616836       -0.9963537733476465
O       -0.0915669957384505        2.2841041394632913       -0.0180762199143091       -0.1586318904925156
N       -0.1500390613730409        2.2297823831223367        0.1376673363233881        0.3123697133706422

        RMSE         1.242503531E+00 kcal/mol

Coordinates in bohr
s                   x[bohr]                   y[bohr]                   z[bohr]                      q[e]
+        3.5703546659625149        2.3087387582642696       -1.7093835908133674        0.1158659338886357
-        3.3897208787280619       -0.7201605580192015       -0.7584898051357554       -0.2341991647481463
+        6.3487269687435175       -0.7875030073398179        0.0584856744521477        0.0569852111266852
+        4.0807393898930888       -0.6152372463736862        0.1437787953056401        0.3189271149812888
-        3.6416093439811545       -0.0551986879933818        0.5392777746111134       -0.2877498234141676
+        2.6851042101757781       -1.2180531659612162        0.4414090029682713        0.5692545008206258
-        1.3154477445956285       -1.2188122677855129        1.3729436527238918       -0.2058946535748549
-        2.1451375591246875       -1.2177868854800238        0.2442854311196088       -0.9992971180892700
+        1.1087208285391923       -1.0714433112726351        0.4234904795180215        0.6691943173322236
+        1.7499276397966399       -3.3026519862273451        1.9033119255369746        0.0628076875181509
+       -3.1133419692163766       -2.1786731802864288       -0.4368136187845891        0.7576134719858190
-       -2.6628937899256546       -1.7300516094093679       -0.1775711631237780       -0.9235083265987739
+       -2.2142950058809738       -1.0534652667227957       -0.1856506274930932        0.9955526175656415
-       -2.8595600319247638       -1.8854319688501744       -0.4657007314267139       -0.9936641819349231
-       -0.6279080398392261        0.2290739955163434       -0.0732093139170605       -0.9934394819660318
+       -1.2368583340450512       -0.3461423226620550        0.1105715468966304        0.8475065253219278
+       -0.2596167585616564        0.5601968947125385        0.1961117736961250        0.9207393412409772
-       -0.8952332951619049        0.5881430417069959        0.6158107927867961       -0.6738758902636315
+       -4.0718216680595889        3.1137774921553789       -0.1724173214349877        0.1207489421105395
+       -0.9499294633322387        1.7772759046693922        0.3962729802640321        0.4308753055723465
-       -1.5381300426039286        1.8219334954092694       -0.2717482012988870       -0.7095764258838037
+       -2.0661912889023566        1.6930171751690040        0.0053143301386554        0.9977500474782615
-       -1.8102751221831730        1.8711126317562361        0.3351928735500616       -0.9963537733476465
-       -0.1730365440766355        4.3163312656101525       -0.0341591050215910       -0.1586318904925156
+       -0.2835327341158059        4.2136780234718962        0.2601535620724959        0.3123697133706422
