25
s                      x[A]                      y[A]                      z[A]                      q[e]
N 1.9344399067243170 1.2972728369521465 -0.0035849305224171 0.1158659338886357
O 1.7772961733014383 -0.3368156412946290 -0.4400596726526964 -0.2341991647481463
N 3.2848141878940327 -0.6804510594766753 -0.0061586825676079 0.0569852111266852
N 2.0903014517000025 -0.5452351020806598 0.0325451579555663 0.3189271149812888
O 1.8388328077074929 -0.3774597101848610 0.3395390283931324 -0.2877498234141676
N 1.2784437507012312 -0.9727723704244100 0.1148511244207713 0.5692545008206258
O 0.8263642196383092 -0.5374897942742483 -0.4970900229954679 -0.2058946535748549
O 1.0758166934576916 -0.7520174748295203 0.1671681162452799 -0.9992971180892700
N 0.6544909961300097 -0.4296779837447411 -0.0182164027095934 0.6691943173322236
N 0.7587209818707696 -2.1670935856506852 0.0208081960362844 0.0628076875181509
N -0.5330365896508333 1.6299696810765427 0.0046078601666628 0.7576134719858190
O -0.5195649065683098 1.2758277368166027 -0.0753888163668689 -0.9235083265987739
N -0.6038975600110228 0.8596987072717597 -0.0099327654332264 0.9955526175656415
O -0.5485814154336501 1.4302466701341441 0.0517017136443897 -0.9936641819349231
O -0.4826773755013478 -0.2017993613596957 0.1161516066757782 -0.9934394819660318
N -0.4878423781582527 0.2194144770280537 -0.0526817752021208 0.8475065253219278
N -0.4557481168845251 -0.4828753419059106 0.0198796705264128 0.9207393412409772
O -0.6842655325992368 -0.2986376018475543 -0.2567339087426260 -0.6738758902636315
N -2.8512240605308037 -0.0221656293551848 -0.0228426444798887 0.1207489421105395
N -1.1638251402211157 -0.7068397070052381 -0.0756358382132322 0.4308753055723465
O -1.4232973194630425 -0.4378300298689003 0.2119646819990037 -0.7095764258838037
N -1.5647349404148514 -0.2314384581746772 0.0079219831995663 0.9977500474782615
O -1.5238833981958759 -0.4264977692593013 -0.1261584141949350 -0.9963537733476465
O -1.8341627013862118 -1.8835878403855146 0.3707463938674487 -0.1586318904925156
N -1.8277089076106416 -1.8386664046720023 0.2017307018727545 0.3123697133706422
