21
s                      x[A]                      y[A]                      z[A]                      q[e]
N       -1.7528490201239533        0.7431354631609224       -1.6271803326164336        0.0707249461841811
O       -1.6772093531709977        0.3790952753969924       -0.0852557618253383       -0.3496602100029151
N       -1.4542893312404293        0.0514618520600129       -0.4514463532982683        0.9824851761690530
N       -3.1369868207744340       -0.0706408796040728        0.1160969756709259        0.1071394941056757
O       -1.5244604188415489       -0.1264273944844297       -0.4431074684983063       -0.8194842575378962
N       -0.6121898761920743       -0.0092659209335833        0.5212770099967278        0.3116552922920345
N       -1.0719399995087002       -0.7080723233916861        1.6678420424695826        0.0918298459672651
N       -1.4374020007428272       -0.1173397998677109        0.6717852200797632        0.5593901217632046
O       -1.0951196334573592       -0.0970631589816169        0.5894257561942607       -0.9963138680841535
N        1.1230452162876774       -0.6797454779962866       -0.0740757988650984        0.9989733053171830
O        1.1500543383951398       -0.7743454889403780       -0.0690910173615395       -0.8354521971080898
N        1.3193763892241781       -1.5184743563195369       -0.2558247468390101        0.2899344186932475
O        1.1460526961409419       -1.1738388101200341       -0.1944618636775902       -0.8678253524624289
N        0.3587587995174817        0.3431864081460597        0.1993799628266859        0.9219570073558310
O        0.5782919524084269        0.2526537242551804        0.2987489955644362       -0.9704818863270434
O        0.4981367654214087        0.3656720502248258       -0.3618421040411293       -0.3320651923316272
N        0.7471645461892136       -0.2625205407079653       -0.0154214909718364        0.9769593393400061
O        1.2306101833799659        0.9071626736554470        0.5195929898289939       -0.1970026432733326
O        1.0073991235220341        0.9792063406144428       -0.4576425076911877       -0.1946060569702309
N        2.4353206778403642        1.1017673315988021       -0.3021830683657841        0.1283355164991325
N        0.6556285709749703        2.2158729360000606        0.2719870029186119        0.1235072004109040

        RMSE         1.113081759E+00 kcal/mol

Coordinates in bohr
s                   x[bohr]                   y[bohr]                   z[bohr]                      q[e]
+       -3.3124045873113888        1.4043224994893984       -3.0749251853764332        0.0707249461841811
-       -3.1694663325494599        0.7163862459553267       -0.1611100404671520       -0.3496602100029151
+       -2.7482085432196324        0.0972488063022521       -0.8531099680704024        0.9824851761690530
+       -5.9280459504343419       -0.1334919157131374        0.2193914880119905        0.1071394941056757
-       -2.8808126807112582       -0.2389131503307897       -0.8373517596067311       -0.8194842575378962
+       -1.1568712027809562       -0.0175100528646190        0.9850707843913579        0.3116552922920345
+       -2.0256730219948422       -1.3380627682268933        3.1517646807917146        0.0918298459672651
+       -2.7162961135890731       -0.2217400853660063        1.2694900810811651        0.5593901217632046
-       -2.0694761818461722       -0.1834227873470281        1.1138532504980307       -0.9963138680841535
+        2.1222478852892612       -1.2845327884314020       -0.1399829723795358        0.9989733053171830
-        2.1732877289614136       -1.4633009005810480       -0.1305631005425616       -0.8354521971080898
+        2.4932600320291454       -2.8695006619747878       -0.4834387076403123        0.2899344186932475
-        2.1657257210489198       -2.2182338665601593       -0.3674796641967609       -0.8678253524624289
+        0.6779558761860724        0.6485283213756423        0.3767735246463990        0.9219570073558310
-        1.0928134106082192        0.4774463434192325        0.5645537818723999       -0.9704818863270434
-        0.9413420596678937        0.6910200266595804       -0.6837824772971517       -0.3320651923316272
+        1.4119363629495991       -0.4960919242451574       -0.0291423943829913        0.9769593393400061
-        2.3255162137875702        1.7142890044468722        0.9818884474845934       -0.1970026432733326
-        1.9037084424829056        1.8504318040730694       -0.8648190029040724       -0.1946060569702309
+        4.6020891087826028        2.0820385106982147       -0.5710432389618312        0.1283355164991325
+        1.2389584391679833        4.1873929778542562        0.5139809452002755        0.1235072004109040
