25
s                      x[A]                      y[A]                      z[A]                      q[e]
N        1.6784812742392472        0.5560962091804315       -1.5103649182937982        0.1158659338886357
O        1.7740648471315439       -0.5671650508817517       -0.2408479797398323       -0.2341991647481463
N        3.3514046043300105       -0.2916583075768013       -0.0252519299025198        0.0569852111266852
N        2.1529633493055798       -0.2331958891627118        0.0959587155672298        0.3189271149812888
O        1.8976592178813989        0.1119642026249963        0.1286477600656771       -0.2877498234141676
N        1.3995921583255888       -0.4896500609137809        0.6981974229015113        0.5692545008206258
O        1.0159197130712032       -0.1680552934712494       -0.0253608421805745       -0.2058946535748549
O        1.1383329598133960       -0.3307421096968486        0.6852108539388878       -0.9992971180892700
N        0.7098995947935612       -0.1236999436174730        0.3946643202057122        0.6691943173322236
N        1.1287140158120612       -0.9897699601568484        1.7576430606882267        0.0628076875181509
N       -0.9280284981686918        1.5747336227160471        0.0508094052461907        0.7576134719858190
O       -0.8113080307275651        1.2385984386434445       -0.0125859759201583       -0.9235083265987739
N       -0.8045798821530195        0.8113290038940009        0.0430512087688755        0.9955526175656415
O       -0.9072484678732163        1.3772283355778914        0.0983536162411396       -0.9936641819349231
O       -0.4659912772461346       -0.2000709276640652        0.2261786262118506       -0.9934394819660318
N       -0.5286910734899127        0.2113664454745673        0.0507616860610441        0.8475065253219278
N       -0.3471748172690626       -0.4637080012937305        0.1509992882762553        0.9207393412409772
O       -0.5387594415912271       -0.3313695920244993       -0.1813414966619103       -0.6738758902636315
N       -2.6804558822472884       -0.5891172275444631       -0.5431936729777331        0.1207489421105395
N       -0.9221977572426420       -0.8440199969534729       -0.1348235655078901        0.4308753055723465
O       -1.3066192422868583       -0.6604087204830038        0.0677750021334645       -0.7095764258838037
N       -1.4346085457796320       -0.4844289614137517       -0.1678294963494396        0.9977500474782615
O       -1.3148182230418965       -0.6560959258680424       -0.2845813350874664       -0.9963537733476465
O       -1.3727088510113599       -2.1684189101635423        0.1330066921924981       -0.1586318904925156
N       -1.3335101999307462       -2.1142807592062276       -0.0274484011350284        0.3123697133706422

        RMSE         8.702200550E-01 kcal/mol

Coordinates in bohr
s                   x[bohr]                   y[bohr]                   z[bohr]                      q[e]
+        3.1718699150216509        1.0508695347563226       -2.8541760450747682        0.1158659338886357
-        3.3524966898808266       -1.0717866140978647       -0.4551367195780987       -0.2341991647481463
+        6.3332368377820760       -0.5511543235346963       -0.0477192316550215        0.0569852111266852
+        4.0685110883359421       -0.4406763641001444        0.1813356917727710        0.3189271149812888
-        3.5860562012463486        0.2115816788165094        0.2431090331777404       -0.2877498234141676
+        2.6448458665737742       -0.9253045124407888        1.3194019107843138        0.5692545008206258
-        1.9198100231582735       -0.3175784785941024       -0.0479250460322446       -0.2058946535748549
-        2.1511375336291105       -0.6250120054831737        1.2948608521355842       -0.9992971180892700
+        1.3415158107333187       -0.2337590151715990        0.7458074766787881        0.6691943173322236
+        2.1329603638504722       -1.8703941519017500        3.3214640110122011        0.0628076875181509
+       -1.7537196981587693        2.9758152674833651        0.0960158605127006        0.7576134719858190
-       -1.5331499814596221        2.3406118284557920       -0.0237840475107063       -0.9235083265987739
+       -1.5204356233223415        1.5331896150001694        0.0813549939430832        0.9955526175656415
-       -1.7144511320216040        2.6025843664623420        0.1858613981441349       -0.9936641819349231
-       -0.8805958908474826       -0.3780792589513673        0.4274156589726948       -0.9934394819660318
+       -0.9990813338702327        0.3994246940584473        0.0959256843218435        0.8475065253219278
+       -0.6560653222943951       -0.8762811246285949        0.2853472999811776        0.9207393412409772
-       -1.0181077921120127       -0.6261977752309983       -0.3426857638716354       -0.6738758902636315
+       -5.0653275088198129       -1.1132702158480559       -1.0264872750094183        0.1207489421105395
+       -1.7427011947000366       -1.5949666386518142       -0.2547796140676348        0.4308753055723465
-       -2.4691525181753882       -1.2479916125769086        0.1280761921845679       -0.7095764258838037
+       -2.7110172487648332       -0.9154380643119687       -0.3171517838739652        0.9977500474782615
-       -2.4846463463103099       -1.2398416119192823       -0.5377807837324537       -0.9963537733476465
-       -2.5940437784033641       -4.0977178654728368        0.2513462210968915       -0.1586318904925156
+       -2.5199690633736229       -3.9954115872248201       -0.0518699607269094        0.3123697133706422
