25
s                      x[A]                      y[A]                      z[A]                      q[e]
N        1.8946792292385093        1.2886206554080548       -0.0035845661838822        0.1172401843454035 
O        1.7803925049556741       -0.3402978532631803       -0.4422330887460418       -0.2347777143597589 
N        3.2852380293555563       -0.6792529962851629       -0.0061340612121589        0.0568748369956833 
N        2.0925579778738728       -0.5392419906446072        0.0329518794871151        0.3208569602433750 
O        1.8167429653013309       -0.3812988549779284        0.3382687310746908       -0.2862024623067517 
N        1.2769838791380801       -0.9773764104515279        0.1151107358304386        0.5685192264840458 
O        0.8294286067807999       -0.5377201210059006       -0.5013018024255604       -0.2073392151861812 
O        1.0894361081189734       -0.7518998166004964        0.1671777423024093       -0.9999999372594467 
N        0.6543883732289454       -0.4271125034992724       -0.0183916113878820        0.6791667277799058 
N        0.7560020278303866       -2.1860585272428512        0.0207030084302319        0.0629669134875272 
N       -0.5320954831829807        1.6281131321766089        0.0046150666809512        0.7577738878599704 
O       -0.5220529571203824        1.2726910293429756       -0.0745325609763609       -0.9311406769432566 
N       -0.6049624902309084        0.8573657956855991       -0.0098349558292928        0.9999995574204820 
O       -0.5461190961885894        1.4324766541658773        0.0517431671685951       -0.9991670328850146 
O       -0.4831231839726357       -0.2025835830425368        0.1169864743160480       -0.9999999956593426 
N       -0.4844227138408297        0.2183435054569416       -0.0523842440126646        0.8558532483153862 
N       -0.4571844025093550       -0.4840654244020417        0.0200414079901284        0.9243046316626364 
O       -0.6821512650963946       -0.2981354004439203       -0.2546095184138318       -0.6755150728157391 
N       -2.8406709920729059       -0.0221629281629031       -0.0227007441615027        0.1200401824199018 
N       -1.1607230613367623       -0.7098673354171838       -0.0760273409593673        0.4282339541314644 
O       -1.4048032029583497       -0.4372228691902218        0.2111786865950444       -0.7050283373338765 
N       -1.5601315957063615       -0.2319326136699679        0.0078464608506568        0.9999999986634496 
O       -1.5200575092048054       -0.4267771290340905       -0.1269700864667667       -0.9999999973259184 
O       -1.8379119665973362       -1.8854478630180687        0.3704622030936627       -0.1600362957669426 
N       -1.8312343884543492       -1.8498619522320963        0.2035364395966322        0.3073764280329978 

        RMSE         1.012022998e-01 kcal/mol
         MAE         6.430794257e-02 kcal/mol
     max. AE         1.365234186e+00 kcal/mol

Coordinates in bohr
s                   x[bohr]                   y[bohr]                   z[bohr]                      q[e]
+        3.5804245795526279        2.4351399419713662       -0.0067738478755389        0.1172401843454035 
-        3.3644539865233916       -0.6430696971762211       -0.8356993608222453       -0.2347777143597589 
+        6.2081996828102444       -1.2836020399144916       -0.0115916948882799        0.0568748369956833 
+        3.9543611934405209       -1.0190196038655124        0.0622700230400166        0.3208569602433750 
-        3.4331463961361530       -0.7205503556752139        0.6392352122425876       -0.2862024623067517 
+        2.4131496234304715       -1.8469736034748330        0.2175277490656490        0.5685192264840458 
-        1.5673927939219676       -1.0161436872579872       -0.9473230441756041       -0.2073392151861812 
-        2.0587357264316632       -1.4208846242535318        0.3159201243443365       -0.9999999372594467 
+        1.2366147155284146       -0.8071255979185834       -0.0347551060119123        0.6791667277799058 
+        1.4286366794253820       -4.1310516115314568        0.0391230130728141        0.0629669134875272 
+       -1.0055146629875529        3.0766876982550846        0.0087212114461154        0.7577738878599704 
-       -0.9865370404958680        2.4050373136075063       -0.1408461174739434       -0.9311406769432566 
+       -1.1432133399175213        1.6201864258437944       -0.0185853716273477        0.9999995574204820 
-       -1.0320154489383206        2.7069883614400330        0.0977804077309684       -0.9991670328850146 
-       -0.9129704364482687       -0.3828274617391880        0.2210723808297223       -0.9999999956593426 
+       -0.9154261918131568        0.4126093967040084       -0.0989918673038962        0.8558532483153862 
+       -0.8639532470044912       -0.9147510126752268        0.0378727695270813        0.9243046316626364 
-       -1.2890789738090249       -0.5633942143405442       -0.4811422238915481       -0.6755150728157391 
+       -5.3680897987823144       -0.0418818613329128       -0.0428981862025514        0.1200401824199018 
+       -2.1934485345754315       -1.3414547521960856       -0.1436708420550697        0.4282339541314644 
-       -2.6546931214989140       -0.8262314187190204        0.3990698522970699       -0.7050283373338765 
+       -2.9482212220422994       -0.4382890876560619        0.0148276609880186        0.9999999986634496 
-       -2.8724921793109046       -0.8064918320758164       -0.2399386721710381       -0.9999999973259184 
-       -3.4731500080379214       -3.5629798268955772        0.7000720529801057       -0.1600362957669426 
+       -3.4605312150802114       -3.4957322064553242        0.3846280995328700        0.3073764280329978 

total molecule built from fragment files: /home/unibas/boittier/pydcm-1.2/test2/3-fragfit/frag1/fit1/5charges.xyz /home/unibas/boittier/pydcm-1.2/test2/3-fragfit/frag2/fit1/5charges.xyz /home/unibas/boittier/pydcm-1.2/test2/3-fragfit/frag3/fit2/8charges.xyz /home/unibas/boittier/pydcm-1.2/test2/3-fragfit/frag4/fit2/7charges.xyz 