25
s                      x[A]                      y[A]                      z[A]                      q[e]
N        1.9344379605784268        1.2972744469926947       -0.0035326313774239        0.1158659338886357
O        1.7772981238228702       -0.3368061015019240       -0.4400634616220614       -0.2341991647481463
N        3.2848162489635548       -0.6804468178292773       -0.0061338171953604        0.0569852111266852
N        2.0903020864808761       -0.5452346235486358        0.0325382442696729        0.3189271149812888
O        1.8388324683328219       -0.3774652969239244        0.3395346314077314       -0.2877498234141676
N        1.2784465622289918       -0.9727720374808619        0.1148305057162218        0.5692545008206258
O        0.8263605091228242       -0.5374855960234114       -0.4971030739125589       -0.2058946535748549
O        1.0758200626028502       -0.7520174723553789        0.1671510515406797       -0.9992971180892700
N        0.6544923894792417       -0.4296768103054363       -0.0182269408398412        0.6691943173322236
N        0.7587146513941050       -2.1670922808223372        0.0207658244376128        0.0628076875181509
N       -0.5330432820617662        1.6299694039733579        0.0046229887241576        0.7576134719858190
O       -0.5195707306103430        1.2758280304966010       -0.0753760683645461       -0.9235083265987739
N       -0.6039006641908969        0.8596981776797082       -0.0099217471371481        0.9955526175656415
O       -0.5485866353387108        1.4302460200233991        0.0517157463030328       -0.9936641819349231
O       -0.4826739416582002       -0.2017988445224932        0.1161546278897864       -0.9934394819660318
N       -0.4878427906906536        0.2194160351986510       -0.0526760382798919        0.8475065253219278
N       -0.4557443432080189       -0.4828740860848986        0.0198806292839149        0.9207393412409772
O       -0.6842656024117458       -0.2986357093015517       -0.2567293506426072       -0.6738758902636315
N       -2.8512201438645355       -0.0221681669369293       -0.0228460954063697        0.1207489421105395
N       -1.1638213277644047       -0.7068411072828188       -0.0756422033000559        0.4308753055723465
O       -1.4232959009351693       -0.4378386597976445        0.2119629192981619       -0.7095764258838037
N       -1.5647317195208665       -0.2314418737938732        0.0079242455900039        0.9977500474782615
O       -1.5238790794644212       -0.4264977933861432       -0.1261607511112550       -0.9963537733476465
O       -1.8341615057388738       -1.8836009952272033        0.3707044262412474       -0.1586318904925156
N       -1.8277063090356940       -1.8386752644560460        0.2016899294331116        0.3123697133706422

        RMSE         4.497994837E-01 kcal/mol
         MAE         2.693725751E-01 kcal/mol
     max. AE         4.114660530E+00 kcal/mol

Coordinates in bohr
s                   x[bohr]                   y[bohr]                   z[bohr]                      q[e]
+        3.6555579521824133        2.4514934143709515       -0.0066757058055300        0.1158659338886357
-        3.3586066973152597       -0.6364712892217869       -0.8315994202866177       -0.2341991647481463
+        6.2074030829948148       -1.2858581286366288       -0.0115912346028551        0.0569852111266852
+        3.9500984629219200       -1.0303441126240211        0.0614883702729294        0.3189271149812888
-        3.4748897557486380       -0.7133060330508364        0.6416274634688841       -0.2877498234141676
+        2.4159138686458728       -1.8382727333424265        0.2169982066514787        0.5692545008206258
-        1.5615950431360328       -1.0157005728627126       -0.9393886658179563       -0.2058946535748549
-        2.0330052785922823       -1.4211070643107195        0.3158697089941705       -0.9992971180892700
+        1.2368113673122432       -0.8119714939375704       -0.0344439262922222        0.6691943173322236
+        1.4337628985070687       -4.0952108993479630        0.0392417209564275        0.0628076875181509
+       -1.0073058161119057        3.0801957663853790        0.0087361825697375        0.7576134719858190
-       -0.9818463836575764        2.4109655608208338       -0.1424401256227781       -0.9235083265987739
+       -1.1412068623028726        1.6245941063698306       -0.0187493847752551        0.9955526175656415
-       -1.0366784968765683        2.7027732698702973        0.0977285968863901       -0.9936641819349231
-       -0.9121215576292084       -0.3813445485813578        0.2195004349161618       -0.9934394819660318
+       -0.9218892666843831        0.4146362140592653       -0.0995432857231283        0.8475065253219278
+       -0.8612319918898123       -0.9124997757812051        0.0375689445483560        0.9207393412409772
-       -1.2930745856296151       -0.5643397018617716       -0.4851481610811582       -0.6738758902636315
+       -5.3880251952924398       -0.0418917642142258       -0.0431728633541189        0.1207489421105395
+       -2.1993035684414135       -1.3357361069798821       -0.1429430477633080        0.4308753055723465
-       -2.6896394482542263       -0.8273951541550509        0.4005518662260458       -0.7095764258838037
+       -2.9569144097111324       -0.4373617554331956        0.0149746539159743        0.9977500474782615
-       -2.8797141085025424       -0.8059640226119097       -0.2384092673823214       -0.9963537733476465
-       -3.4660629157038181       -3.5594900106192120        0.7005298390909397       -0.1586318904925156
+       -3.4538643618488498       -3.4745926834756715        0.3811387288914967        0.3123697133706422
