25
s                      x[A]                      y[A]                      z[A]                      q[e]
N       -1.7991738337799066        1.0066462610853875       -1.2431132525909614        0.1158659338886357
O       -1.8802794491610322        0.2244501891283243        0.2830377148057504       -0.2341991647481463
N       -3.3734558965771413       -0.2593121523737027        0.0406584362542595        0.0569852111266852
N       -2.1629663461224702       -0.2586430443944833        0.0561559220925401        0.3189271149812888
O       -1.8637884008383296       -0.3613373723584364       -0.2363790836470289       -0.2877498234141676
N       -1.4047910732270106       -0.4651701674888760        0.6212933946733440        0.5692545008206258
O       -0.9459870151062763       -0.4598969245361928       -0.1255598844704266       -0.2058946535748549
O       -1.1035983287003677       -0.5005285854150375        0.5976242414117628       -0.9992971180892700
N       -0.6348167476517699       -0.4548021981395530        0.2911304610737414        0.6691943173322236
N       -1.0214740494858581       -1.3861126171015208        1.4129788223882942        0.0628076875181509
N        1.5079665026181368       -1.2657767998570810       -0.2707114621072645        0.7576134719858190
O        1.2655795290905754       -0.9952022604360198       -0.2766650212886154       -0.9235083265987739
N        1.0958366733541347       -0.6232590284484001       -0.1447352847790231        0.9955526175656415
O        1.4113191781331276       -1.1038333217263177       -0.1883563875538578       -0.9936641819349231
O        0.3926783957984440        0.1217200886130403        0.2055253437260693       -0.9934394819660318
N        0.6085106201819790       -0.1920114075549909       -0.0413379483364394        0.8475065253219278
N        0.1799611691699076        0.3281066799991391        0.1715675185438375        0.9207393412409772
O        0.3974086472904341        0.3447001613032625       -0.1677259783287123       -0.6738758902636315
N        2.2879266194537831        1.4817384843998829       -0.2118279670855218        0.1207489421105395
N        0.5690843948714767        0.9501807693576161        0.0784273471192878        0.4308753055723465
O        0.9955704997068549        0.8714366911831173        0.2636705654963612       -0.7095764258838037
N        1.1797647004014276        0.8278545345381525        0.0021201946823658        0.9977500474782615
O        1.0011891792051242        0.9684160087533189       -0.0756473532015185       -0.9963537733476465
O        0.4844723816481168        2.2149457215127031        0.7256455512564972       -0.1586318904925156
N        0.4671388420574938        2.1977065820112238        0.5523589347634293        0.3123697133706422

        RMSE         1.294880033E+00 kcal/mol

Coordinates in bohr
s                   x[bohr]                   y[bohr]                   z[bohr]                      q[e]
+       -3.3999457979340093        1.9022857386674985       -2.3491435903239961        0.1158659338886357
-       -3.5532131982410569        0.4241493862597450        0.5348637641583085       -0.2341991647481463
+       -6.3749077408415848       -0.4900289489892872        0.0768333092099359        0.0569852111266852
+       -4.0874140127536913       -0.4887645181602040        0.1061193130774475        0.3189271149812888
-       -3.5220496333894582       -0.6828286726500207       -0.4466917298795718       -0.2877498234141676
+       -2.6546703918870227       -0.8790442182873226        1.1740743594885996        0.5692545008206258
-       -1.7876563767901994       -0.8690792333137508       -0.2372737939932318       -0.2058946535748549
-       -2.0854985937566806       -0.9458619443972465        1.1293461422027244       -0.9992971180892700
+       -1.1996297929157189       -0.8594515957399610        0.5501568382076324        0.6691943173322236
+       -1.9303061977906284       -2.6193732253634670        2.6701429953857958        0.0628076875181509
+        2.8496436963127634       -2.3919714876883305       -0.5115705224049846        0.7576134719858190
-        2.3915986999670755       -1.8806597116606321       -0.5228211187294428       -0.9235083265987739
+        2.0708311908721044       -1.1777888689864053       -0.2735100489224987        0.9955526175656415
-        2.6670067222778417       -2.0859426662171185       -0.3559419864573848       -0.9936641819349231
-        0.7420546234431891        0.2300176314451041        0.3883866114828533       -0.9934394819660318
+        1.1499184165764313       -0.3628489732425969       -0.0781174009441955        0.8475065253219278
+        0.3400773229483102        0.6200317651316046        0.3242156220722601        0.9207393412409772
-        0.7509935032675887        0.6513889002643027       -0.3169561631657412       -0.6738758902636315
+        4.3235547059122243        2.8000799250667452       -0.4002968435041314        0.1207489421105395
+        1.0754136485789882        1.7955814237627061        0.1482062068016679        0.4308753055723465
-        1.8813555830311486        1.6467766820112621        0.4982651561327132       -0.7095764258838037
+        2.2294321762415050        1.5644183419954767        0.0040065872823234        0.9977500474782615
-        1.8919733484696024        1.8300410320527436       -0.1429527796666454       -0.9963537733476465
-        0.9155201166632220        4.1856407964135940        1.3712713560316503       -0.1586318904925156
+        0.8827644740521641        4.1530635441172370        1.0438071096525086        0.3123697133706422
