25
s                      x[A]                      y[A]                      z[A]                      q[e]
N 1.8898595704888868 1.2204001688624704 -0.9059285560212581 0.1158659338886357
O 1.7921813838679621 -0.3771735702702017 -0.3984809805707824 -0.2341991647481463
N 3.3598815666662127 -0.4178824362148771 0.0297260141711012 0.0569852111266852
N 2.1604189599085264 -0.3303553950528008 0.0715950108001959 0.3189271149812888
O 1.9261499835649514 -0.0248997377749780 0.2898738712005292 -0.2877498234141676
N 1.4202165427743196 -0.6525451474574859 0.2355907359899634 0.5692545008206258
O 0.6954153890712776 -0.6409884374968424 0.7246420169447767 -0.2058946535748549
O 1.1345552534190335 -0.6363639895978632 0.1272896954853192 -0.9992971180892700
N 0.5873288835833917 -0.5730486164876056 0.2257505625464152 0.6691943173322236
N 0.9262718193398184 -1.7496332144728821 1.0062705412698727 0.0628076875181509
N -1.6443439626232750 -1.1536171861113804 -0.2309575306731280 0.7576134719858190
O -1.4102599557259117 -0.9133659892206495 -0.0941407136714631 -0.9235083265987739
N -1.1689563211913501 -0.5597685515227181 -0.0979594575021743 0.9955526175656415
O -1.5140549124987484 -0.9956508813221969 -0.2461012002803759 -0.9936641819349231
O -0.3321919887466840 0.1252816558186763 -0.0391787453924583 -0.9934394819660318
N -0.6529719858217804 -0.1867175221886605 0.0590221285263057 0.8475065253219278
N -0.1379828367060555 0.2913504441517533 0.1046318607179527 0.9207393412409772
O -0.4736637543492657 0.3147606528727028 0.3244551263747730 -0.6738758902636315
N -2.1545482677112453 1.6475026610137646 -0.0912287005989796 0.1207489421105395
N -0.5037360146929342 0.9372959977582638 0.2100511450934844 0.4308753055723465
O -0.8128648075918965 0.9665173378077850 -0.1436149543050772 -0.7095764258838037
N -1.0931361901993566 0.8931369370807878 0.0030955682632933 0.9977500474782615
O -0.9568545596701704 0.9923180089595798 0.1767420972132011 -0.9963537733476465
O -0.0897258373470105 2.2846753576875889 -0.0181290112604089 -0.1586318904925156
N -0.1530221572849288 2.2280425736363956 0.1380203433775998 0.3123697133706422
