25
s                      x[A]                      y[A]                      z[A]                      q[e]
N 1.9320233913895262 1.2955271383901414 -0.0079401510796818 0.1158659338886357
O 1.7791846538477745 -0.3299179884172990 -0.4319379362760812 -0.2341991647481463
N 3.2841687389542451 -0.6823280181738276 -0.0085813530159630 0.0569852111266852
N 2.0875159658314999 -0.5537351639164364 0.0214162090788499 0.3189271149812888
O 1.8406442657287978 -0.3698935247935556 0.3512973279039584 -0.2877498234141676
N 1.2863608248768179 -0.9640218894681583 0.1191536096133440 0.5692545008206258
O 0.8227902785923906 -0.5396818940252609 -0.4977328840029866 -0.2058946535748549
O 1.0656091017906855 -0.7581906991769989 0.1616145201348094 -0.9992971180892700
N 0.6602325228984933 -0.4269167281758357 -0.0148463649464515 0.6691943173322236
N 0.7589718214024076 -2.1715343374658627 0.0174896432079188 0.0628076875181509
N -0.5323888550895381 1.6227737219826699 0.0045327135502295 0.7576134719858190
O -0.5189499836903110 1.2770582319550730 -0.0751108169976309 -0.9235083265987739
N -0.6016782549913237 0.8539835209216569 -0.0094362182136519 0.9955526175656415
O -0.5477251518724878 1.4307350672655741 0.0512266345464774 -0.9936641819349231
O -0.4838972336689570 -0.2027354139646848 0.1139012060846338 -0.9934394819660318
N -0.4854950291928823 0.2172078892784143 -0.0514779735543354 0.8475065253219278
N -0.4537896110893673 -0.4797267648465217 0.0213135917631707 0.9207393412409772
O -0.6840408833038207 -0.2997871442204909 -0.2559765602987574 -0.6738758902636315
N -2.8517383709775537 -0.0232255743390359 -0.0234260060291416 0.1207489421105395
N -1.1644517545236435 -0.7044726621914087 -0.0753259999169969 0.4308753055723465
O -1.4214594093960842 -0.4383000479381260 0.2107679769441531 -0.7095764258838037
N -1.5639622141295302 -0.2321424330493047 0.0075922175115483 0.9977500474782615
O -1.5208020953740182 -0.4270558935378793 -0.1250842820161898 -0.9963537733476465
O -1.8315039750060622 -1.8851044709264955 0.3698717151437677 -0.1586318904925156
N -1.8309437845392105 -1.8341344308213905 0.2017252982944135 0.3123697133706422
