21
s                      x[A]                      y[A]                      z[A]                      q[e]
N        1.9568044939612514        1.4165020243383215        0.3151890917537042        0.0707249461841811
O        1.6542949947903085       -0.0470300394553308       -0.2270473591041446       -0.3496602100029151
N        1.4697465823420028        0.1140131124560519        0.2625094655639585        0.9824851761690530
N        3.0390817586677414       -0.6781244076475231        0.0632094923596883        0.1071394941056757
O        1.5059288840185445       -0.0159676949526852        0.3945759342953108       -0.8194842575378962
N        0.4956343533421488       -0.6410887471891220        0.0190567565176608        0.3116552922920345
N        0.7560746320899691       -1.9865822211888304       -0.3210294281390209        0.0918298459672651
N        1.2564422716141845       -0.9880260595596109       -0.1054032357636660        0.5593901217632046
O        0.9575050277289159       -0.7997584315997516       -0.0720747442923347       -0.9963138680841535
N       -0.7263435320430210        0.8832582627518053        0.0388034247795251        0.9989733053171830
O       -0.6984173526072441        0.9800359890465317        0.0525061874692665       -0.8354521971080898
N       -0.5236982792341149        1.7350348612913278       -0.0483781266407982        0.2899344186932475
O       -0.5314229487314325        1.3476919231814850       -0.0578172981204218       -0.8678253524624289
N       -0.5245452656950585       -0.4072062184979465        0.0221258600136326        0.9219570073558310
O       -0.6330805598507933       -0.2323875792960621        0.1903450370041911       -0.9704818863270434
O       -0.8033899116199222       -0.2510939133788139       -0.4622956090851272       -0.3320651923316272
N       -0.6056323014304881        0.3414921529285439       -0.0388624774758625        0.9769593393400061
O       -1.4486759422899504       -0.5491651790130516        0.5834826064386777       -0.1970026432733326
O       -1.5643521142292058       -0.5209892718887654       -0.4141594277199939       -0.1946060569702309
N       -2.7566796730589136       -0.0020071171190666        0.2106905535884498        0.1283355164991325
N       -1.6999449977700412       -1.9060009399623399        0.1029780446087692        0.1235072004109040

        RMSE         4.065273979E-01 kcal/mol

Coordinates in bohr
s                   x[bohr]                   y[bohr]                   z[bohr]                      q[e]
+        3.6978245746518619        2.6768008821560265        0.5956210611462993        0.0707249461841811
-        3.1261644708693677       -0.0888738942400511       -0.4290573262153074       -0.3496602100029151
+        2.7774185144540380        0.2154535572529626        0.4960709952561844        0.9824851761690530
+        5.7430321967567535       -1.2814694094421386        0.1194486290890300        0.1071394941056757
-        2.8457931552113953       -0.0301745703154304        0.7456404515147802       -0.8194842575378962
+        0.9366131861850550       -1.2114821543003127        0.0360120506579124        0.3116552922920345
+        1.4287739850563301       -3.7540963237505749       -0.6066576973950941        0.0918298459672651
+        2.3743317857989052       -1.8670986573829489       -0.1991832483303905        0.5593901217632046
-        1.8094222661565544       -1.5113244022492280       -0.1362015272749173       -0.9963138680841535
+       -1.3725903485590121        1.6691162146485814        0.0733278455631062        0.9989733053171830
-       -1.3198175176950013        1.8519996123901328        0.0992223142088593       -0.8354521971080898
+       -0.9896463201260158        3.2787407059623210       -0.0914214098138236        0.2899344186932475
-       -1.0042438298856240        2.5467686363045567       -0.1092588587615448       -0.8678253524624289
+       -0.9912468925691701       -0.7695082295444582        0.0418118157159843        0.9219570073558310
-       -1.1963488734695122       -0.4391488798276713        0.3596999892780570       -0.9704818863270434
-       -1.5181869049174226       -0.4744987280553895       -0.8736120901726042       -0.3320651923316272
+       -1.1444791824343437        0.6453266430279094       -0.0734394389861538        0.9769593393400061
-       -2.7376007754675564       -1.0377717859726887        1.1026223251373972       -0.1970026432733326
-       -2.9561970596741189       -0.9845270381714517       -0.7826478906671356       -0.1946060569702309
+       -5.2093695976979735       -0.0037929016567538        0.3981474435032661        0.1283355164991325
+       -3.2124304741273964       -3.6018197713940112        0.1946003012457528        0.1235072004109040
