21
s                      x[A]                      y[A]                      z[A]                      q[e]
N 1.6992789652243245 0.5887606548813822 -1.6454981751911417 0.0707249461841811
O 1.5908543481834325 -0.3251566449312350 -0.3551875664730377 -0.3496602100029151
N 1.4630506898334530 0.2057271409861758 -0.3188450986015026 0.9824851761690530
N 3.1090600120111849 -0.3261990632464847 0.0233259034159848 0.1071394941056757
O 1.5449263922390757 0.2851265302238045 -0.1680358305875226 -0.8194842575378962
N 0.5732086152055152 -0.3892959192302308 0.4974570710214555 0.3116552922920345
N 1.0831363754069714 -0.9472187442101083 1.6224728126434145 0.0918298459672651
N 1.3975843734448736 -0.5356317395822207 0.6145915588128485 0.5593901217632046
O 1.0657034932342271 -0.4270452566517763 0.5524632648982886 -0.9963138680841535
N -0.9447922444380444 0.8080415845124398 0.1034478691750468 0.9989733053171830
O -0.9448415276218149 0.9080659437253235 0.1227375264378318 -0.8354521971080898
N -0.9244853127076139 1.6864382862402221 0.0561290419296658 0.2899344186932475
O -0.8408874948059921 1.3081624751886081 0.0563161388753081 -0.8678253524624289
N -0.4581696819835289 -0.4069943126320128 0.1837724095117818 0.9219570073558310
O -0.6481309728488395 -0.2680604315690009 0.3081318200562257 -0.9704818863270434
O -0.6098802702711297 -0.2978801431675487 -0.3650020331830094 -0.3320651923316272
N -0.6856604685900363 0.3060948830122151 0.0803751640948149 0.9769593393400061
O -1.4510163368638858 -0.7959645995074216 0.3325142616512702 -0.1970026432733326
O -1.1984372011971898 -0.7108648894420596 -0.6362517281781561 -0.1946060569702309
N -2.6241920526013813 -0.5265675932266097 -0.5062822837768820 0.1283355164991325
N -1.1762595863015983 -2.1293884554419620 -0.1989399299885482 0.1235072004109040
