25
s                      x[A]                      y[A]                      z[A]                      q[e]
N       -1.6741601756268876        0.1315048075968651       -1.6405180256670833        0.1158659338886357
O       -1.8225084058889554        0.3207105569692316        0.0259830602771780       -0.2341991647481463
N       -3.3671725465968687       -0.1453563043216844        0.0288053717596492        0.0569852111266852
N       -2.1631263492548123       -0.1759760354025329        0.1270855149349163        0.3189271149812888
O       -1.8858275613008981       -0.4574151077000588       -0.0576447241634256       -0.2877498234141676
N       -1.4868133020215062       -0.2542106386952835        0.5408881010960771        0.5692545008206258
O       -0.7505075834342964       -0.0333881550372903        0.9712136569703158       -0.2058946535748549
O       -1.2274978521606710       -0.1460651020789063        0.4224088038917848       -0.9992971180892700
N       -0.7020637299812710        0.0222502744440280        0.4552708052635833        0.6691943173322236
N       -1.1548482618025633       -0.4149928206757789        1.9380957448732330        0.0628076875181509
N        1.0522182499051946        1.5323859902313062       -0.0636019620069741        0.7576134719858190
O        0.9538854430875693        1.2058581192950186        0.0433021525985488       -0.9235083265987739
N        0.8709532193645546        0.7851389647930206       -0.0014885075014888        0.9955526175656415
O        0.9942982885285133        1.3422916503896476       -0.0991011367716836       -0.9936641819349231
O        0.3876918480233132       -0.1864655617814748        0.0006518120638289       -0.9934394819660318
N        0.5692486347652981        0.2145188028101795        0.1258658403984896        0.8475065253219278
N        0.2952371429020144       -0.4313246382939402        0.1246745658938987        0.9207393412409772
O        0.6405648565470504       -0.3472689821954677        0.3117096328940905       -0.6738758902636315
N        2.6342161452806447       -0.8048398086871429       -0.4567118783958924        0.1207489421105395
N        0.8910894296760858       -0.8786045835300287        0.0673440763806935        0.4308753055723465
O        1.1375142777237790       -0.7199010679313429       -0.2978109887252686       -0.7095764258838037
N        1.3860388825329388       -0.5676980103797985       -0.1523093127049419        0.9977500474782615
O        1.3190118614081436       -0.7419923841646607        0.0015536356259921       -0.9963537733476465
O        0.9970322271719135       -2.2179935852847859       -0.4202328691171117       -0.1586318904925156
N        1.0568650302809541       -2.1669829299142855       -0.2614696234042161        0.3123697133706422

        RMSE         7.916629220E-01 kcal/mol

Coordinates in bohr
s                   x[bohr]                   y[bohr]                   z[bohr]                      q[e]
+       -3.1637042220831955        0.2485080705391010       -3.1001297723875831        0.1158659338886357
-       -3.4440417484748584        0.6060551182148881        0.0491008678251288       -0.2341991647481463
+       -6.3630339302284691       -0.2746836057766857        0.0544342635677342        0.0569852111266852
+       -4.0877163748530334       -0.3325465115546580        0.2401568177397724        0.3189271149812888
-       -3.5636976106987310       -0.8643892791999073       -0.1089327412464355       -0.2877498234141676
+       -2.8096699405082606       -0.4803884853117979        1.0221303755905318        0.5692545008206258
-       -1.4182537877700105       -0.0630944688548039        1.8353278209782431       -0.2058946535748549
-       -2.3196347601713909       -0.2760230394161738        0.7982369523376981       -0.9992971180892700
+       -1.3267081722819780        0.0420469249154864        0.8603371348648167        0.6691943173322236
+       -2.1823469312678654       -0.7842227751084550        3.6624701627255982        0.0628076875181509
+        1.9884043165293603        2.8957898400256634       -0.1201902892349551        0.7576134719858190
-        1.8025822424964959        2.2787415916272389        0.0818292090540393       -0.9235083265987739
+        1.6458630526848017        1.4836976138842850       -0.0028128715135033        0.9955526175656415
-        1.8789514523303372        2.5365635997252225       -0.1872740072200199       -0.9936641819349231
-        0.7326314138366808       -0.3523688435966236        0.0012317462859060       -0.9934394819660318
+        1.0757240169971851        0.4053817860723323        0.2378519669037311        0.8475065253219278
+        0.5579173421474627       -0.8150854375377068        0.2356007843498139        0.9207393412409772
-        1.2104921444671071       -0.6562432682159247        0.5890458368368316       -0.6738758902636315
+        4.9779470698396482       -1.5209268132845741       -0.8630603684116366        0.1207489421105395
+        1.6839149753782154       -1.6603220354436898        0.1272618605314239        0.4308753055723465
-        2.1495904486959168       -1.3604158558148494       -0.5627812058425667       -0.7095764258838037
+        2.6192338872228684       -1.0727937615851346       -0.2878228873690546        0.9977500474782615
-        2.4925711742917289       -1.4021623932467007        0.0029359458318793       -0.9963537733476465
-        1.8841178476101692       -4.1914004242105349       -0.7941250315467060       -0.1586318904925156
+        1.9971854588046978       -4.0950042560801752       -0.4941059783605668        0.3123697133706422
