25
s                      x[A]                      y[A]                      z[A]                      q[e]
N -1.6740807366546153 0.1314355532310144 -1.6405357082725023 0.1158659338886357
O -1.8226796080446581 0.3208213225810900 0.0261294521528483 -0.2341991647481463
N -3.3671343722700873 -0.1454524549102653 0.0287805269178465 0.0569852111266852
N -2.1630056202777554 -0.1762530754212072 0.1269094519864957 0.3189271149812888
O -1.8859139844331496 -0.4571307891348479 -0.0574976978692323 -0.2877498234141676
N -1.4867442614798909 -0.2544552149887966 0.5405314764393077 0.5692545008206258
O -0.7505721214715280 -0.0334014616473791 0.9715251854826958 -0.2058946535748549
O -1.2276405412083553 -0.1459083996269646 0.4227857444014850 -0.9992971180892700
N -0.7019586141370489 0.0222673107521237 0.4549347707270188 0.6691943173322236
N -1.1548497158329067 -0.4150288889016230 1.9379257912897621 0.0628076875181509
N 1.0523368994714302 1.5327047443927055 -0.0636306692002636 0.7576134719858190
O 0.9538443594548791 1.2056225723445373 0.0433637854953775 -0.9235083265987739
N 0.8711334633586123 0.7854475251648758 -0.0016005034577042 0.9955526175656415
O 0.9942757049996114 1.3420991673344485 -0.0990861699909656 -0.9936641819349231
O 0.3876597962452173 -0.1865929001325739 0.0008561132526209 -0.9934394819660318
N 0.5693915507766573 0.2147347926866269 0.1256726328892272 0.8475065253219278
N 0.2952674960128138 -0.4312987199078202 0.1244053332114323 0.9207393412409772
O 0.6405308725227532 -0.3474190057753217 0.3120032041098360 -0.6738758902636315
N 2.6342388481277683 -0.8047425319086203 -0.4567516935364417 0.1207489421105395
N 0.8910739611702065 -0.8785449122692491 0.0671392254027030 0.4308753055723465
O 1.1375303392248572 -0.7200384964385362 -0.2976791973804127 -0.7095764258838037
N 1.3861226997739995 -0.5675307719876508 -0.1524869155191614 0.9977500474782615
O 1.3190259270517941 -0.7421729896058403 0.0017631385622747 -0.9963537733476465
O 0.9971484921974699 -2.2180232688243100 -0.4201800886935296 -0.1586318904925156
N 1.0566915054081378 -2.1669877146991507 -0.2615889168136886 0.3123697133706422
