25
s                      x[A]                      y[A]                      z[A]                      q[e]
N       -1.7994193702538699        1.0055053132263978       -1.2425888062893511        0.1158659338886357
O       -1.8800234127786235        0.2282806945153058        0.2830122654127095       -0.2341991647481463
N       -3.3735395341678878       -0.2604839253608329        0.0406813431681624        0.0569852111266852
N       -2.1632747146835221       -0.2634190169857080        0.0569048035167056        0.3189271149812888
O       -1.8629496798839498       -0.3568874621655677       -0.2377393824641889       -0.2877498234141676
N       -1.4050941948035218       -0.4697111858903508        0.6271136115072538        0.5692545008206258
O       -0.9455882960876524       -0.4580013462893370       -0.1280694034195069       -0.2058946535748549
O       -1.1020963206921373       -0.4960058798637675        0.5907167959514384       -0.9992971180892700
N       -0.6358624625016861       -0.4578778516096442        0.2962003446627197        0.6691943173322236
N       -1.0215726518864778       -1.3882659622580529        1.4134067565273960        0.0628076875181509
N        1.5056683210663924       -1.2652384695418595       -0.2685946455628774        0.7576134719858190
O        1.2661802932894042       -0.9945556960354545       -0.2784712004746119       -0.9235083265987739
N        1.0934383700159480       -0.6238799448331496       -0.1420649326071660        0.9955526175656415
O        1.4116597139717266       -1.1030631072732122       -0.1903381611858721       -0.9936641819349231
O        0.3935338787822066        0.1238617515920589        0.2018251616601077       -0.9934394819660318
N        0.6068907568759926       -0.1936660173259004       -0.0382427901441145        0.8475065253219278
N        0.1794514405877060        0.3249567137172649        0.1748581653043176        0.9207393412409772
O        0.3976896716861230        0.3465142681403293       -0.1698715820817251       -0.6738758902636315
N        2.2875961578062305        1.4817085526576781       -0.2114716301843649        0.1207489421105395
N        0.5691759035702134        0.9479811832113844        0.0803470691540431        0.4308753055723465
O        0.9957902148683812        0.8730472644450487        0.2613619548231638       -0.7095764258838037
N        1.1786954383156691        0.8260440501103610        0.0039509471426358        0.9977500474782615
O        1.0009594355766602        0.9697016617424931       -0.0771085517720310       -0.9963537733476465
O        0.4838653094876814        2.2155942555206649        0.7245179277136484       -0.1586318904925156
N        0.4683408112842807        2.1960165501171156        0.5533050081337514        0.3123697133706422

        RMSE         9.551697174E-01 kcal/mol

Coordinates in bohr
s                   x[bohr]                   y[bohr]                   z[bohr]                      q[e]
+       -3.4004097946236107        1.9001296596905808       -2.3481525304464430        0.1158659338886357
-       -3.5527293596001512        0.4313879923632309        0.5348156717754020       -0.2341991647481463
+       -6.3750657929818892       -0.4922432790161728        0.0768765970035919        0.0569852111266852
+       -4.0879967448797805       -0.4977897983403118        0.1075344938695631        0.3189271149812888
-       -3.5204646804899977       -0.6744195611026155       -0.4492623220927885       -0.2877498234141676
+       -2.6552432086493463       -0.8876254993967743        1.1850729752954683        0.5692545008206258
-       -1.7869029070439890       -0.8654971095778178       -0.2420160975136402       -0.2058946535748549
-       -2.0826602099828806       -0.9373152695592584        1.1162929620561743       -0.9992971180892700
+       -1.2016059075873848       -0.8652637384552474        0.5597375296787546        0.6691943173322236
+       -1.9304925293231125       -2.6234424579628937        2.6709516737084318        0.0628076875181509
+        2.8453007625933870       -2.3909541908275305       -0.5075703188782550        0.7576134719858190
-        2.3927339797688423       -1.8794378820210929       -0.5262343027244786       -0.9235083265987739
+        2.0662990543971604       -1.1789622309003913       -0.2684638146591674        0.9955526175656415
-        2.6676502417486967       -2.0844871718428801       -0.3596869958645457       -0.9936641819349231
-        0.7436712519874898        0.2340647879284815        0.3813942807638551       -0.9934394819660318
+        1.1468573185674382       -0.3659757325541223       -0.0722683996457343        0.8475065253219278
+        0.3391140755296312        0.6140791915544357        0.3304340432251924        0.9207393412409772
-        0.7515245624100129        0.6548170653486795       -0.3210107666326897       -0.6738758902636315
+        4.3229302239033824        2.8000233622715203       -0.3996234643525505        0.1207489421105395
+        1.0755865749576978        1.7914248083569768        0.1518339556843620        0.4308753055723465
-        1.8817707845120442        1.6498202243812976        0.4939025142300612       -0.7095764258838037
+        2.2274115637430860        1.5609970222725444        0.0074662080357419        0.9977500474782615
-        1.8915391959327366        1.8324705640946588       -0.1457140447798245       -0.9963537733476465
-        0.9143729165416091        4.1868663480716872        1.3691404563630476       -0.1586318904925156
+        0.8850358667020196        4.1498698466940835        1.0455949292170061        0.3123697133706422
