25
s                      x[A]                      y[A]                      z[A]                      q[e]
N -1.7120086829404215 0.6192851588358860 -1.5279845547060724 0.1158659338886357
O -1.8714744707162230 0.3951024672084826 0.1300242509665390 -0.2341991647481463
N -3.3776115102347717 -0.0717700800382231 0.0569204254982921 0.0569852111266852
N -2.1619978767740093 -0.0826395544891464 0.1349028082558607 0.3189271149812888
O -1.8766222907234333 -0.3505486619433136 -0.1466038299597641 -0.2877498234141676
N -1.4162386108075171 -0.2053834455806447 0.7514780612749660 0.5692545008206258
O -0.9994032813028109 -0.2441775009513890 -0.0143650512310851 -0.2058946535748549
O -1.1215811304438541 -0.1985512942067252 0.6973025344067530 -0.9992971180892700
N -0.6799744487984632 -0.2881359746651999 0.3933688607020639 0.6691943173322236
N -1.1191247547750232 -0.7223561645064709 1.8335576264727336 0.0628076875181509
N 1.2901797447832890 -1.3820680346009813 -0.2301807098935649 0.7576134719858190
O 1.0881961476548867 -1.0995371101741445 -0.2390594371033554 -0.9235083265987739
N 0.9733382451696517 -0.6876766867014642 -0.1152570688104837 0.9955526175656415
O 1.2166998925037698 -1.2175730721294389 -0.1557917686642598 -0.9936641819349231
O 0.4147709283109599 0.1491702182633172 0.2068591529664269 -0.9934394819660318
N 0.5635847667470678 -0.1967396297016172 -0.0124197879678929 0.8475065253219278
N 0.2350493243340289 0.3686004645028596 0.1836409611674850 0.9207393412409772
O 0.4345186210702574 0.3471155507818564 -0.1586727846225063 -0.6738758902636315
N 2.4604598192387139 1.1971963815645752 -0.3420643086333451 0.1207489421105395
N 0.7050585329503010 0.9244405621707267 0.0379909200193409 0.4308753055723465
O 1.1170278665357884 0.8017660409203466 0.2090239354684279 -0.7095764258838037
N 1.2698170309848793 0.7170851991323635 -0.0468457719158234 0.9977500474782615
O 1.1212114025991511 0.8717585005486259 -0.1202216699216701 -0.9963537733476465
O 0.8135789993515721 2.2289255817605822 0.6005145459646087 -0.1586318904925156
N 0.8112673704345137 2.1945364956627222 0.4264163210708704 0.3123697133706422
