25
s                      x[A]                      y[A]                      z[A]                      q[e]
N 2.0492147873222106 1.1370173231709038 -0.1139621499759794 0.1158659338886357
O 1.5939006874775545 -0.4404301644152304 -0.6453955649401107 -0.2341991647481463
N 3.1129267204943960 -0.9589408078789878 -0.5947891750284056 0.0569852111266852
N 1.9818946223235128 -0.7093244221224457 -0.2692200857618837 0.3189271149812888
O 1.8290559236913342 -0.5371990719780262 0.0952192207737611 -0.2877498234141676
N 1.1684603668752456 -1.0588105805041057 -0.0141784363910775 0.5692545008206258
O 0.6878760742596535 -0.5649407629910288 -0.4380181800470273 -0.2058946535748549
O 1.0105519568535768 -0.8224077570961115 0.0938734350743166 -0.9992971180892700
N 0.6063346797354642 -0.4525254425997993 0.0628979576112064 0.6691943173322236
N 0.5090530491351679 -2.1847993218943857 -0.0287432759085835 0.0628076875181509
N -0.3372971958782642 1.7241451002092876 0.2963004167705375 0.7576134719858190
O -0.3704187126568402 1.3707907865686821 0.2122997691478918 -0.9235083265987739
N -0.4906582769221405 0.9660651933482431 0.2863196247956147 0.9955526175656415
O -0.3618424353132412 1.5238738591086194 0.3436911821136952 -0.9936641819349231
O -0.4729372030380946 -0.1054867187587941 0.3841687275030894 -0.9934394819660318
N -0.4580515789060650 0.3188770972454268 0.2207290179749298 0.8475065253219278
N -0.4963829065233917 -0.3843019971436165 0.2819669109520914 0.9207393412409772
O -0.7418127617205768 -0.1690073747973500 0.0480700031462317 -0.6738758902636315
N -2.8098647233365570 -0.0000277348548827 -0.4306594899979327 0.1207489421105395
N -1.2313111596619470 -0.5238874972767458 0.3009001420402161 0.4308753055723465
O -1.4804425137911066 -0.2302394808030578 0.2306566711353885 -0.7095764258838037
N -1.5670606559246432 -0.1696722220731514 -0.0762505313463803 0.9977500474782615
O -1.5236022614166558 -0.4073074945024927 -0.0714846248830660 -0.9963537733476465
O -2.0597233592618003 -1.3480069402865043 1.0598630718165469 -0.1586318904925156
N -2.0214308071785121 -1.4029149025581238 0.8979201382521835 0.3123697133706422
