21
s                      x[A]                      y[A]                      z[A]                      q[e]
N       -1.7626455893637780        0.1121064827748817       -1.8071423747711273        0.0690680479201058
O       -1.8552980069453389        0.2225375662228971        0.1134916776157730       -0.3117950550350966
N       -1.9849619449167559       -0.1369601877379534        0.1329773132649908        0.5776243102962968
N       -3.3424432897631626       -0.1856590897280264        0.0969066898879912        0.0604184539076988
O       -1.8354202832554769       -0.4468600479693124        0.0518521642789523       -0.3968494342195521
O       -0.8168064272822669       -0.5357666227140445        0.3909663427786015       -0.9828651838991298
N       -0.6115822286459807       -0.5988534068863882        0.3337627295473518        0.7759263489545838
N       -1.1884541658998333       -0.2793737422218330        1.2952690647424538        0.9970342621901004
O       -1.1888544246883448       -0.5585912318370920        1.2664110923441863       -0.3970377457969525
O       -1.2397792742452038       -0.0138568418992815        1.3402665616813998       -0.3893757401670396
N        1.1119143071521573        1.6904217650579239        0.0187252315692065        0.1691966627363242
O        0.9569856794751305        1.2678267308754196        0.0146461620863183       -0.6800109224217911
O        0.6709499504208433       -0.4305198626780403        0.3872334067680201       -0.9821368279659007
N        0.5375578174320471       -0.5756697588416668        0.2980269849207525        0.8921713087406896
O        0.6729548389222505       -0.4083880217909697       -0.3134111615561647       -0.3335771210350215
N        0.7221216724365251        0.2174456768248826        0.1006988434562951        0.9988617281482304
N        2.7608554543430852       -0.7722777090951179       -0.5198449417253628        0.0655379221577991
N        1.4610726800821976       -0.7440078518027080       -0.1803031083951088        0.9908754307264420
O        1.4287092069320091       -0.7779601747452340        0.1936960932878666       -0.6595771554465193
O        1.3164242740467631       -0.7983292235314368       -0.5192782078440332       -0.5578053818499882
N        0.8531012970916354       -2.3194864277063876        0.0231590705428952        0.0943160920587207

        RMSE         1.068760644E+00 kcal/mol

Coordinates in bohr
s                   x[bohr]                   y[bohr]                   z[bohr]                      q[e]
+       -3.3309174201437424        0.2118505493328819       -3.4150041580269006        0.0690680479201058
-       -3.5060051142344459        0.4205350527872102        0.2144681882125636       -0.3117950550350966
+       -3.7510344453487763       -0.2588172449160194        0.2512907029700429        0.5776243102962968
+       -6.3163024075266581       -0.3508448322877706        0.1831271036129769        0.0604184539076988
-       -3.4684416604630819       -0.8444431070709479        0.0979863894994673       -0.3968494342195521
-       -1.5435404450771695       -1.0124521840910374        0.7388193121234237       -0.9828651838991298
+       -1.1557229153380326       -1.1316689283126347        0.6307201497297461        0.7759263489545838
+       -2.2458528862101068       -0.5279398594435185        2.4477037911411421        0.9970342621901004
-       -2.2466092656997012       -1.0555844442542233        2.3931701267723948       -0.3970377457969525
-       -2.3428432843423073       -0.0261856361534109        2.5327367366868767       -0.3893757401670396
+        2.1012135154957718        3.1944341724724934        0.0353855593015772        0.1691966627363242
-        1.8084408401931653        2.3958452958890715        0.0276772351322056       -0.6800109224217911
-        1.2679116501849022       -0.8135646320312093        0.7317650854195658       -0.9821368279659007
+        1.0158370515454289       -1.0878581829191054        0.5631893794961722        0.8921713087406896
-        1.2717003403646412       -0.7717415141024363       -0.5922612600027686       -0.3335771210350215
+        1.3646121901626016        0.4109127763638405        0.1902932352827489        0.9988617281482304
+        5.2172606806848698       -1.4593933629857649       -0.9823645675655203        0.0655379221577991
+        2.7610272147440162       -1.4059710750973333       -0.3407234944354918        0.9908754307264420
-        2.6998691140215518       -1.4701316667818061        0.3660325678851982       -0.6595771554465193
-        2.4876813428530240       -1.5086235904238183       -0.9812935957437897       -0.5578053818499882
+        1.6121278087760238       -4.3831941000816110        0.0437643006462299        0.0943160920587207
