21
s                      x[A]                      y[A]                      z[A]                      q[e]
N       -2.0480309276235515        1.4406164392672725        0.0004280661401227        0.0690680479201058
O       -1.7920249388938638       -0.4356315485356282        0.3564253152512034       -0.3117950550350966
N       -1.9114771042620680       -0.5215974224884677        0.0031943559424565        0.5776243102962968
N       -3.2470792595879763       -0.7470093251884321       -0.0147876026523885        0.0604184539076988
O       -1.7753731343333670       -0.4524859775075997       -0.3156806027547466       -0.3968494342195521
O       -0.5401288403225927       -0.9823447721676982       -0.0730855462203329       -0.9828651838991298
N       -0.3187427394678960       -0.9637639202670032       -0.0696050719965093        0.7759263489545838
N       -0.9047709765240894       -1.5291504920565337       -0.0056854539282667        0.9970342621901004
O       -0.9069093308512779       -1.5347083694122383       -0.2863273729730783       -0.3970377457969525
O       -0.9502092755715916       -1.5507209184737583        0.2638110089764978       -0.3893757401670396
N        0.5041974797243104        1.7850250366329918        0.1000897448474907        0.1691966627363242
O        0.5069097917218430        1.3371641680288706        0.0551523758297641       -0.6800109224217911
O        0.7173263925171605       -0.3811319315874435        0.3427433167043804       -0.9821368279659007
N        0.6693788225975763       -0.5530686928027159        0.2204382886801252        0.8921713087406896
O        0.8995887388196104       -0.2974364443405850       -0.3289501785864208       -0.3335771210350215
N        0.6233219718838069        0.2713505234819321        0.0781497487220259        0.9988617281482304
N        2.9705280970947179        0.0607448620301705       -0.0126009283855667        0.0655379221577991
N        1.6980219790889679       -0.3673042619191823       -0.0201483777806668        0.9908754307264420
O        1.5899901392636440       -0.4447126684356499        0.3325733505996192       -0.6595771554465193
O        1.6665488341421670       -0.4338937489847311       -0.3853241877694932       -0.5578053818499882
N        1.6319694417952961       -2.0666294944429735        0.0092648115112778        0.0943160920587207

        RMSE         1.340686832E+00 kcal/mol

Coordinates in bohr
s                   x[bohr]                   y[bohr]                   z[bohr]                      q[e]
+       -3.8702175496758557        2.7223705220473953        0.0008089277684138        0.0690680479201058
-       -3.3864363444997028       -0.8232243183414266        0.6735462300047416       -0.3117950550350966
+       -3.6121682221385067       -0.9856762762479220        0.0060364578784715        0.5776243102962968
+       -6.1360905082756600       -1.4116430377692026       -0.0279445190651080        0.0604184539076988
-       -3.3549689943857137       -0.8550745730994344       -0.5965498823259190       -0.3968494342195521
-       -1.0206955806708431       -1.8563625801722172       -0.1381116660859187       -0.9828651838991298
+       -0.6023364820724810       -1.8212498589022112       -0.1315345230161767        0.7759263489545838
+       -1.7097693518935630       -2.8896756345959251       -0.0107439508233324        0.9970342621901004
-       -1.7138102559311370       -2.9001785006370904       -0.5410803171409337       -0.3970377457969525
-       -1.7956352926999937       -2.9304378329338197        0.4985305558462775       -0.3893757401670396
+        0.9527951498250229        3.3732084463216814        0.1891422057287112        0.1691966627363242
-        0.9579206766671531        2.5268740623502381        0.1042228854865741       -0.6800109224217911
-        1.3555504244200949       -0.7202349683669976        0.6476909999023341       -0.9821368279659007
+        1.2649426488908408       -1.0451483579621021        0.4165679931700472        0.8921713087406896
-        1.6999763419150766       -0.5620734195336867       -0.6216257464487775       -0.3335771210350215
+        1.1779078148407196        0.5127781733804649        0.1476816218579769        0.9988617281482304
+        5.6134845514864162        0.1147911527657444       -0.0238123035752285        0.0655379221577991
+        3.2087964954860286       -0.6941044597406837       -0.0380749158777201        0.9908754307264420
-        3.0046459053868384       -0.8403851478649125        0.6284725492591462       -0.6595771554465193
-        3.1493208712297380       -0.8199403531292874       -0.7281571843988291       -0.5578053818499882
+        3.0839752901093997       -3.9053637472905907        0.0175079563603041        0.0943160920587207
