21
s                      x[A]                      y[A]                      z[A]                      q[e]
N -1.7058727984756803 0.6777411399981245 -1.6008603174649869 0.0707249461841811
O -1.6449029867197531 0.1921194865661022 -0.0851817778726015 -0.3496602100029151
N -1.4289660278403771 -0.1127062148289674 -0.4852199128811909 0.9824851761690530
N -3.1102381341427234 -0.3120007228806382 0.0285617911291123 0.1071394941056757
O -1.4835775670617166 -0.2931247362033653 -0.4702072567974626 -0.8194842575378962
N -0.6356289459855091 -0.3831131844626290 0.2532186249484712 0.3116552922920345
N -1.0810435885213434 -0.9874179792690498 1.6018231030685786 0.0918298459672651
N -1.4173400443800301 -0.5355665233969862 0.5368977280532501 0.5593901217632046
O -1.0947911184146097 -0.4254760028827744 0.4387356954365698 -0.9963138680841535
N 0.9025463682568998 0.8134018371361964 -0.0582671928414271 0.9989733053171830
O 0.8947427569076100 0.9143948462490668 -0.0692793681358591 -0.8354521971080898
N 0.9195250738576878 1.6871084525412856 0.0448670350755548 0.2899344186932475
O 0.8409015326509061 1.3082476707361652 0.0623708721027803 -0.8678253524624289
N 0.4200284341237845 -0.4026019579839935 0.0327194035344215 0.9219570073558310
O 0.5291211283165406 -0.2535394537801071 -0.1590501753023840 -0.9704818863270434
O 0.8176462086409846 -0.3232831948935529 0.4471754431506481 -0.3320651923316272
N 0.6791646897066099 0.3068489653822655 0.0564536482559886 0.9769593393400061
O 1.1814466193053796 -0.7443204409352444 -0.6596853230172948 -0.1970026432733326
O 1.4565943547932092 -0.7579774279413720 0.3066292891864413 -0.1946060569702309
N 2.6240926237339051 -0.5236251163605726 -0.5092810117644402 0.1283355164991325
N 1.1815566227832961 -2.1290986747040712 -0.1920329943123012 0.1235072004109040
